# generated using pymatgen
data_Zn3H12C16(N5O2)4
_symmetry_space_group_name_H-M   'P 1'
_cell_length_a   37.34739300
_cell_length_b   28.87125271
_cell_length_c   44.77594845
_cell_angle_alpha   90.00000000
_cell_angle_beta   90.00000000
_cell_angle_gamma   90.00000000
_symmetry_Int_Tables_number   1
_chemical_formula_structural   Zn3H12C16(N5O2)4
_chemical_formula_sum   'Zn144 H576 C768 N960 O384'
_cell_volume   48280.38378421
_cell_formula_units_Z   48
loop_
 _symmetry_equiv_pos_site_id
 _symmetry_equiv_pos_as_xyz
  1  'x, y, z'
loop_
 _atom_site_type_symbol
 _atom_site_label
 _atom_site_symmetry_multiplicity
 _atom_site_fract_x
 _atom_site_fract_y
 _atom_site_fract_z
 _atom_site_occupancy
  Zn  Zn0  1  0.06272301  0.02835577  0.18989891  1
  N  N1  1  0.05084351  0.08218554  0.21583381  1
  C  C2  1  0.09430241  0.16288767  0.08562282  1
  C  C3  1  0.11349044  0.18512413  0.10688195  1
  C  C4  1  0.09227226  0.19150760  0.13322868  1
  C  C5  1  0.11816074  0.16242654  0.05643388  1
  H  H6  1  0.10727611  0.07061068  0.01566928  1
  C  C7  1  0.08818900  0.05097624  0.03058262  1
  C  C8  1  0.05917780  0.14736881  0.08717531  1
  O  O9  1  0.10222542  0.15483811  0.03308857  1
  C  C10  1  0.04238557  0.15654016  0.11414764  1
  C  C11  1  0.05747682  0.18023234  0.13864344  1
  H  H12  1  0.04585149  0.12823753  0.06800739  1
  C  C13  1  0.05183205  0.05535386  0.02332260  1
  O  O14  1  0.14771996  0.21138795  0.15561624  1
  H  H15  1  0.04259183  0.18333713  0.16012818  1
  C  C16  1  0.11399516  0.21650670  0.15698710  1
  H  H17  1  0.14126252  0.19862694  0.10354925  1
  O  O18  1  0.15121219  0.16949660  0.05615292  1
  C  C19  1  0.00387773  0.13772911  0.12024525  1
  N  N20  1  0.06749366  0.14131082  0.21081190  1
  O  O21  1  0.16800900  0.13122859  0.18954839  1
  H  H22  1  0.21240181  0.10779107  0.22650725  1
  C  C23  1  0.18519919  0.11431173  0.17027969  1
  O  O24  1  0.18277879  0.11830051  0.14195981  1
  N  N25  1  0.22012750  0.15145327  0.12842496  1
  N  N26  1  0.05225069  0.16293360  0.23011088  1
  C  C27  1  0.02815090  0.03162465  0.04086058  1
  N  N28  1  0.12120179  0.02928837  0.18215265  1
  N  N29  1  0.10846371  0.04643870  0.16035691  1
  C  C30  1  0.21701375  0.08486972  0.18193939  1
  C  C31  1  0.22658032  0.08500322  0.21182404  1
  N  N32  1  0.21812049  0.16254620  0.10215674  1
  H  H33  1  0.22510348  0.05586828  0.13915975  1
  C  C34  1  0.23556248  0.05665074  0.16189898  1
  C  C35  1  0.09947761  0.03001730  0.05665811  1
  C  C36  1  0.02376237  0.08444170  0.23407887  1
  C  C37  1  0.04061816  0.01005831  0.06742491  1
  O  O38  1  0.16289366  0.03998719  0.04879426  1
  C  C39  1  0.13911496  0.02557381  0.06548005  1
  C  C40  1  0.07581843  0.00916343  0.07679408  1
  C  C41  1  0.20112060  0.23788763  0.17919470  1
  O  O42  1  0.09808874  0.23562642  0.17757651  1
  O  O43  1  0.14689548  0.01093862  0.09021390  1
  N  N44  1  0.02577556  0.24686786  0.04000957  1
  H  H45  1  0.00011950  0.03394236  0.03452980  1
  N  N46  1  0.02511056  0.12392035  0.24930335  1
  N  N47  1  0.23198773  0.24832155  0.18884326  1
  N  N48  1  0.16762881  0.19279727  0.24542156  1
  N  N49  1  0.15854378  0.23312685  0.24865444  1
  H  H50  1  0.25621163  0.23046153  0.00646333  1
  H  H51  1  0.46936224  0.02881255  0.14847583  1
  C  C52  1  0.25914465  0.21103951  0.06718575  1
  O  O53  1  0.25719676  0.19540136  0.09259644  1
  C  C54  1  0.25879728  0.06215471  0.21987078  1
  C  C55  1  0.26365502  0.03027882  0.17205732  1
  O  O56  1  0.33958383  0.06495481  0.06070169  1
  N  N57  1  0.31164642  0.02863178  0.10429217  1
  C  C58  1  0.27711966  0.03273015  0.20131109  1
  H  H59  1  0.30105254  0.01465311  0.20754270  1
  C  C60  1  0.39400655  0.08590759  0.17143264  1
  C  C61  1  0.41849480  0.04704814  0.17105598  1
  H  H62  1  0.37065663  0.08377654  0.18570472  1
  O  O63  1  0.42018877  0.01418614  0.18934109  1
  C  C64  1  0.39510649  0.12067091  0.15105625  1
  N  N65  1  0.33919021  0.07622463  0.23376915  1
  N  N66  1  0.30359510  0.03659183  0.07890843  1
  O  O67  1  0.34739336  0.15627527  0.17762507  1
  H  H68  1  0.30014972  0.13492598  0.07158097  1
  C  C69  1  0.42072048  0.12265068  0.12866426  1
  C  C70  1  0.36491787  0.15794783  0.15362418  1
  C  C71  1  0.33292252  0.07395856  0.03351047  1
  C  C72  1  0.29839766  0.14644585  0.04907802  1
  C  C73  1  0.31363523  0.12174150  0.02690383  1
  C  C74  1  0.27755991  0.18602821  0.04249193  1
  H  H75  1  0.31587520  0.18440663  0.18540380  1
  N  N76  1  0.27019482  0.21153172  0.17671752  1
  N  N77  1  0.29607945  0.21299064  0.19283884  1
  H  H78  1  0.42299881  0.15292647  0.11441599  1
  O  O79  1  0.36413937  0.18710159  0.13502081  1
  C  C80  1  0.44563820  0.05209268  0.14869853  1
  C  C81  1  0.44543267  0.08685884  0.12804463  1
  C  C82  1  0.47865744  0.08468509  0.10406419  1
  O  O83  1  0.48804378  0.12198729  0.09221200  1
  N  N84  1  0.36856409  0.07482303  0.24421587  1
  C  C85  1  0.27331343  0.20177510  0.01296070  1
  O  O86  1  0.49400857  0.04765544  0.09930369  1
  O  O87  1  0.34334403  0.05140458  0.01259805  1
  H  H88  1  0.45587197  0.02333197  0.24527009  1
  O  O89  1  0.24597468  0.25074508  0.06063822  1
  O  O90  1  0.01285109  0.25287790  0.16377602  1
  C  C91  1  0.05566369  0.25326848  0.03691567  1
  N  N92  1  0.16995332  0.25130211  0.18190639  1
  C  C93  1  0.22765913  0.28422407  0.09142581  1
  O  O94  1  0.01762247  0.43505711  0.09533335  1
  O  O95  1  0.01233942  0.26898905  0.07448350  1
  N  N96  1  0.08571082  0.25856591  0.03308736  1
  N  N97  1  0.00430694  0.43047317  0.21252874  1
  N  N98  1  0.23268898  0.47022627  0.11949043  1
  Zn  Zn99  1  0.23993984  0.30043264  0.22266016  1
  N  N100  1  0.18638784  0.26015751  0.01749835  1
  H  H101  1  0.00864614  0.35342636  0.08723678  1
  H  H102  1  0.04077491  0.45864120  0.18343482  1
  N  N103  1  0.06859324  0.29059873  0.22397316  1
  C  C104  1  0.08619548  0.33439654  0.22698227  1
  H  H105  1  0.07578653  0.27410809  0.20393588  1
  N  N106  1  0.11252390  0.34149507  0.20947522  1
  H  H107  1  0.03951300  0.28906694  0.22523870  1
  N  N108  1  0.06691834  0.46382239  0.23024464  1
  Zn  Zn109  1  0.11114140  0.31924704  0.03651778  1
  Zn  Zn110  1  0.15823097  0.30156485  0.21220848  1
  Zn  Zn111  1  0.14133829  0.40668294  0.21073730  1
  N  N112  1  0.12153134  0.33410807  0.07952254  1
  N  N113  1  0.09386301  0.31858774  0.11054058  1
  N  N114  1  0.10207915  0.34386326  0.13146466  1
  N  N115  1  0.08075144  0.37817866  0.01916894  1
  N  N116  1  0.13788488  0.37582272  0.11809560  1
  C  C117  1  0.14462071  0.36450687  0.08950118  1
  Zn  Zn118  1  0.16082770  0.43013408  0.14129480  1
  N  N119  1  0.13866819  0.45604576  0.17979723  1
  H  H120  1  0.18020792  0.38111954  0.05089581  1
  H  H121  1  0.18759539  0.41030499  0.08314030  1
  N  N122  1  0.17002267  0.38898620  0.07197805  1
  N  N123  1  0.18061296  0.39718321  0.17791053  1
  C  C124  1  0.21011908  0.37289706  0.17863682  1
  N  N125  1  0.20655649  0.33207928  0.19218000  1
  N  N126  1  0.20909601  0.44092263  0.11906064  1
  N  N127  1  0.09196514  0.41825126  0.01790333  1
  C  C128  1  0.09700074  0.47991818  0.24108126  1
  H  H129  1  0.08332711  0.46785968  0.18149199  1
  N  N130  1  0.06092544  0.47982507  0.19171094  1
  O  O131  1  0.21873190  0.36648357  0.03237366  1
  N  N132  1  0.12132823  0.44928391  0.24657126  1
  N  N133  1  0.13374028  0.49309419  0.11930626  1
  N  N134  1  0.15719100  0.30992223  0.01210020  1
  O  O135  1  0.21668416  0.30341068  0.10977448  1
  N  N136  1  0.24247735  0.38254941  0.16203629  1
  Zn  Zn137  1  0.03573336  0.41015930  0.24962018  1
  H  H138  1  0.24387490  0.39478706  0.14073697  1
  O  O139  1  0.00255233  0.29005647  0.20425701  1
  N  N140  1  0.07824556  0.36457319  0.24760423  1
  N  N141  1  0.21576165  0.49535286  0.23429618  1
  N  N142  1  0.24758543  0.49341724  0.23168482  1
  C  C143  1  0.14221330  0.49805460  0.18592608  1
  N  N144  1  0.19058137  0.32072507  0.24443897  1
  C  C145  1  0.19220455  0.46644921  0.01102161  1
  C  C146  1  0.23092575  0.49208994  0.00910730  1
  O  O147  1  0.17296877  0.47444115  0.03138106  1
  O  O148  1  0.05712614  0.45114327  0.00091320  1
  O  O149  1  0.32451842  0.42360797  0.23968142  1
  O  O150  1  0.26903882  0.36675708  0.05830151  1
  N  N151  1  0.38225250  0.49997489  0.00346946  1
  H  H152  1  0.32357369  0.36078299  0.02574624  1
  C  C153  1  0.27206032  0.36018948  0.00449106  1
  H  H154  1  0.25802869  0.35552934  0.15896078  1
  C  C155  1  0.25157662  0.36367597  0.03406410  1
  C  C156  1  0.30960371  0.35605105  0.00458044  1
  O  O157  1  0.38015897  0.32913250  0.00669269  1
  H  H158  1  0.37215937  0.48370221  0.23808307  1
  C  C159  1  0.30322374  0.45245545  0.24919112  1
  N  N160  1  0.04461232  0.16919029  0.32244411  1
  N  N161  1  0.03778771  0.17419987  0.36163029  1
  N  N162  1  0.13420259  0.12496967  0.38191568  1
  C  C163  1  0.07301355  0.19373048  0.31574464  1
  H  H164  1  0.13079187  0.09521250  0.39536178  1
  N  N165  1  0.06114295  0.20017618  0.37018492  1
  N  N166  1  0.07986305  0.20261345  0.28524931  1
  N  N167  1  0.08963459  0.21046329  0.33972281  1
  H  H168  1  0.11928601  0.12200526  0.36169851  1
  H  H169  1  0.07017564  0.18243327  0.26879297  1
  O  O170  1  0.05686081  0.05594783  0.42811354  1
  C  C171  1  0.04270865  0.06873341  0.45145276  1
  C  C172  1  0.16727086  0.15011822  0.38174455  1
  N  N173  1  0.17615366  0.18378164  0.36381307  1
  N  N174  1  0.15301806  0.10701332  0.47016490  1
  N  N175  1  0.18300718  0.06457093  0.47811224  1
  N  N176  1  0.18767656  0.14543824  0.40520907  1
  Zn  Zn177  1  0.21698149  0.03225300  0.44779430  1
  Zn  Zn178  1  0.23464298  0.11118168  0.40447311  1
  N  N179  1  0.21768059  0.12864693  0.31722366  1
  Zn  Zn180  1  0.20866601  0.19654268  0.43306918  1
  O  O181  1  0.12647827  0.09229253  0.32840178  1
  N  N182  1  0.23565992  0.16605755  0.46769501  1
  C  C183  1  0.12709862  0.07229059  0.30436599  1
  C  C184  1  0.15927127  0.04047119  0.29730851  1
  O  O185  1  0.10389663  0.07803158  0.28510525  1
  N  N186  1  0.16496188  0.17462645  0.28248693  1
  Zn  Zn187  1  0.21876860  0.23201063  0.37145789  1
  N  N188  1  0.15762395  0.21071724  0.29601096  1
  O  O189  1  0.05385918  0.06503550  0.47678907  1
  H  H190  1  0.14087051  0.05848218  0.44059149  1
  N  N191  1  0.12926159  0.04115080  0.42386630  1
  Zn  Zn192  1  0.14400530  0.22712394  0.34151281  1
  N  N193  1  0.24133305  0.09675275  0.44724231  1
  C  C194  1  0.18633512  0.03398611  0.31812535  1
  H  H195  1  0.18452221  0.05221001  0.34003288  1
  N  N196  1  0.00214219  0.04165944  0.33886890  1
  H  H197  1  0.10732549  0.20585183  0.28083931  1
  C  C198  1  0.15951290  0.02498865  0.26843134  1
  H  H199  1  0.20279864  0.14993808  0.30461966  1
  C  C200  1  0.23893188  0.14602550  0.34171336  1
  H  H201  1  0.23271515  0.10706652  0.30264764  1
  H  H202  1  0.10185146  0.03839868  0.42396493  1
  N  N203  1  0.04533181  0.02488237  0.35558871  1
  N  N204  1  0.24387510  0.19008393  0.34327082  1
  H  H205  1  0.22572812  0.21416314  0.30143690  1
  H  H206  1  0.08305589  0.02803498  0.25623410  1
  N  N207  1  0.00724387  0.07437556  0.32252562  1
  H  H208  1  0.01736874  0.23473830  0.34290080  1
  N  N209  1  0.13807639  0.11833039  0.49321180  1
  Zn  Zn210  1  0.01124549  0.13052322  0.29290485  1
  H  H211  1  0.00997216  0.09452777  0.40283608  1
  C  C212  1  0.00265460  0.08463574  0.45151326  1
  N  N213  1  0.22960529  0.24166567  0.28715395  1
  H  H214  1  0.20891583  0.24217632  0.27226051  1
  O  O215  1  0.24939352  0.08706109  0.26793849  1
  H  H216  1  0.13853380  0.03434405  0.25065785  1
  O  O217  1  0.24816732  0.01314043  0.35523860  1
  N  N218  1  0.18730563  0.00981578  0.41036359  1
  C  C219  1  0.15277044  0.01089939  0.40761187  1
  H  H220  1  0.06569913  0.00330915  0.28791526  1
  C  C221  1  0.21318032  0.00263605  0.31107769  1
  N  N222  1  0.06491593  0.00381448  0.26514054  1
  H  H223  1  0.09878118  0.24488168  0.39168011  1
  H  H224  1  0.09889969  0.24493403  0.42765753  1
  N  N225  1  0.25113275  0.21973514  0.40880877  1
  C  C226  1  0.25084585  0.12476489  0.46926006  1
  H  H227  1  0.29303085  0.00461898  0.36558791  1
  H  H228  1  0.34432452  0.07829030  0.41702385  1
  N  N229  1  0.25272873  0.11886861  0.36204737  1
  O  O230  1  0.45758323  0.02275031  0.44195863  1
  N  N231  1  0.38969724  0.00558418  0.45381018  1
  H  H232  1  0.38952593  0.01442093  0.43149099  1
  H  H233  1  0.33831983  0.06087967  0.45269410  1
  N  N234  1  0.33033933  0.05562674  0.43045050  1
  N  N235  1  0.27220943  0.02387141  0.43844977  1
  Zn  Zn236  1  0.30837595  0.12075385  0.37456175  1
  N  N237  1  0.27909421  0.07521317  0.40079291  1
  C  C238  1  0.29231289  0.05025136  0.42261166  1
  N  N239  1  0.33005450  0.07415961  0.34127904  1
  N  N240  1  0.32543768  0.16400454  0.33911221  1
  N  N241  1  0.29542008  0.18875805  0.38372649  1
  C  C242  1  0.28440780  0.20569177  0.40951802  1
  C  C243  1  0.33774008  0.03020687  0.34157283  1
  N  N244  1  0.34401795  0.17315131  0.28995112  1
  C  C245  1  0.34445613  0.14670094  0.31769188  1
  N  N246  1  0.35934083  0.10660561  0.32010176  1
  N  N247  1  0.36200048  0.01724731  0.32155227  1
  Zn  Zn248  1  0.38178466  0.05849018  0.28900598  1
  N  N249  1  0.36416295  0.12716566  0.39648104  1
  N  N250  1  0.43612321  0.02082205  0.35368618  1
  N  N251  1  0.37867590  0.12941993  0.42031421  1
  H  H252  1  0.44787728  0.14342314  0.33641646  1
  N  N253  1  0.42191999  0.05355387  0.36585678  1
  O  O254  1  0.45199673  0.09247525  0.38282416  1
  O  O255  1  0.42853508  0.12936776  0.42062557  1
  C  C256  1  0.44156654  0.12881123  0.39497302  1
  C  C257  1  0.43910491  0.17616629  0.38034696  1
  C  C258  1  0.44271469  0.17701634  0.34874178  1
  C  C259  1  0.42994270  0.21507604  0.39596173  1
  O  O260  1  0.42680857  0.17529837  0.28539469  1
  N  N261  1  0.45167448  0.12431490  0.29270867  1
  C  C262  1  0.43938673  0.21725428  0.33338243  1
  N  N263  1  0.43490424  0.08851141  0.29309094  1
  H  H264  1  0.42853874  0.21390478  0.42058209  1
  Zn  Zn265  1  0.29290091  0.22319344  0.34187776  1
  C  C266  1  0.44230833  0.21087358  0.29757121  1
  N  N267  1  0.30626481  0.20834638  0.43530249  1
  H  H268  1  0.33358708  0.20575900  0.28860694  1
  H  H269  1  0.36727535  0.17534927  0.27954036  1
  O  O270  1  0.38507682  0.16244811  0.48720772  1
  H  H271  1  0.33162373  0.19781743  0.43432085  1
  H  H272  1  0.41720494  0.01416520  0.46008596  1
  O  O273  1  0.38440671  0.23903555  0.49639582  1
  O  O274  1  0.30344202  0.05922553  0.25904401  1
  N  N275  1  0.27869273  0.11711780  0.49019698  1
  H  H276  1  0.30041318  0.23636947  0.45197849  1
  H  H277  1  0.28282706  0.08253678  0.49624009  1
  O  O278  1  0.45435042  0.24197938  0.28234225  1
  C  C279  1  0.27202456  0.07143807  0.25094073  1
  N  N280  1  0.43767862  0.06108657  0.49970451  1
  C  C281  1  0.24307105  0.49159623  0.44770275  1
  H  H282  1  0.00848369  0.27744674  0.28632566  1
  N  N283  1  0.17299785  0.25289767  0.43004718  1
  N  N284  1  0.11476926  0.25459249  0.40945933  1
  H  H285  1  0.01132387  0.44112912  0.47378931  1
  N  N286  1  0.20580418  0.44693456  0.31759868  1
  C  C287  1  0.00767008  0.28215387  0.43715234  1
  N  N288  1  0.03986130  0.40716811  0.34080302  1
  H  H289  1  0.06531367  0.28252747  0.33250064  1
  H  H290  1  0.05521581  0.33235431  0.31958845  1
  N  N291  1  0.04661079  0.44716785  0.40607249  1
  N  N292  1  0.11198038  0.45766098  0.47003131  1
  C  C293  1  0.05251788  0.42619677  0.31147792  1
  N  N294  1  0.08765452  0.42960278  0.30796247  1
  N  N295  1  0.12322965  0.41225833  0.38164098  1
  Zn  Zn296  1  0.09692922  0.46832149  0.40004654  1
  Zn  Zn297  1  0.12522123  0.42051980  0.33961251  1
  N  N298  1  0.07628798  0.30964550  0.32060170  1
  C  C299  1  0.11231104  0.32369591  0.32602364  1
  N  N300  1  0.12442191  0.36431165  0.31612340  1
  C  C301  1  0.03455657  0.31298455  0.42933754  1
  C  C302  1  0.04957559  0.31845320  0.39792249  1
  O  O303  1  0.03466739  0.29802833  0.37438188  1
  O  O304  1  0.07539446  0.34103048  0.39480580  1
  C  C305  1  0.05293263  0.34116394  0.45008461  1
  H  H306  1  0.07463235  0.36515962  0.44344626  1
  N  N307  1  0.02961876  0.43016071  0.29395696  1
  N  N308  1  0.09026964  0.42654007  0.46613163  1
  N  N309  1  0.13653306  0.29870946  0.33908913  1
  Zn  Zn310  1  0.11138926  0.39493112  0.27572564  1
  C  C311  1  0.04394160  0.33398683  0.47973770  1
  C  C312  1  0.14952624  0.38906261  0.39564066  1
  N  N313  1  0.15168021  0.38418594  0.42788235  1
  H  H314  1  0.17537870  0.38018268  0.43902072  1
  C  C315  1  0.15232744  0.25919172  0.40690808  1
  H  H316  1  0.14482630  0.41578271  0.43761324  1
  N  N317  1  0.16824479  0.26159650  0.37966459  1
  N  N318  1  0.16654930  0.29230567  0.45972829  1
  N  N319  1  0.17384632  0.37862318  0.37958526  1
  Zn  Zn320  1  0.18069864  0.31977561  0.35876767  1
  N  N321  1  0.21361621  0.36659428  0.28331660  1
  C  C322  1  0.18628626  0.35687452  0.26140176  1
  N  N323  1  0.23056522  0.29723639  0.35017548  1
  H  H324  1  0.01602749  0.39196757  0.34091033  1
  N  N325  1  0.18187463  0.28157607  0.48344330  1
  H  H326  1  0.03541876  0.43317810  0.35545359  1
  N  N327  1  0.01281584  0.31113038  0.28077691  1
  H  H328  1  0.22055562  0.40086709  0.28692807  1
  C  C329  1  0.21077626  0.43168155  0.47663917  1
  C  C330  1  0.01580760  0.30512845  0.48911371  1
  H  H331  1  0.18750067  0.45634650  0.47797263  1
  C  C332  1  0.21007204  0.38610591  0.48745059  1
  C  C333  1  0.24144869  0.44452297  0.46205651  1
  N  N334  1  0.15422358  0.48265138  0.34322806  1
  H  H335  1  0.03826574  0.31400580  0.27417459  1
  N  N336  1  0.02242411  0.47217732  0.39751027  1
  N  N337  1  0.20176522  0.47709545  0.33626608  1
  N  N338  1  0.16026764  0.38402670  0.25298044  1
  C  C339  1  0.23747874  0.35506807  0.47973332  1
  H  H340  1  0.23780987  0.31768627  0.48464573  1
  O  O341  1  0.08626954  0.39039792  0.49939027  1
  H  H342  1  0.24036340  0.39173012  0.34784403  1
  H  H343  1  0.23676946  0.35005118  0.28616771  1
  N  N344  1  0.11793656  0.49639926  0.43815914  1
  C  C345  1  0.49503536  0.43158662  0.26692778  1
  C  C346  1  0.25906581  0.32140574  0.35396987  1
  C  C347  1  0.38629308  0.48368253  0.31052612  1
  O  O348  1  0.29298391  0.29945587  0.45847485  1
  C  C349  1  0.42278911  0.49025615  0.30276889  1
  O  O350  1  0.33185010  0.35460206  0.45301729  1
  C  C351  1  0.43895797  0.45105349  0.28683405  1
  O  O352  1  0.31597548  0.47115079  0.32493783  1
  O  O353  1  0.42459504  0.30289487  0.42127683  1
  H  H354  1  0.42995772  0.29265329  0.33603604  1
  O  O355  1  0.42445071  0.41700987  0.28026088  1
  N  N356  1  0.25442228  0.44388071  0.31445425  1
  N  N357  1  0.27125636  0.28673765  0.25780260  1
  H  H358  1  0.28151463  0.38750586  0.35720181  1
  C  C359  1  0.43170842  0.25928743  0.34743565  1
  C  C360  1  0.42695526  0.25548750  0.37876281  1
  N  N361  1  0.32627846  0.28818127  0.28387002  1
  N  N362  1  0.25781930  0.37051090  0.35860490  1
  N  N363  1  0.29241041  0.25177510  0.29774760  1
  C  C364  1  0.30116389  0.34028957  0.45764313  1
  C  C365  1  0.27198298  0.41748419  0.45574571  1
  N  N366  1  0.26947328  0.47617521  0.32663632  1
  N  N367  1  0.31481699  0.30567664  0.26109267  1
  H  H368  1  0.29421139  0.42842951  0.44141168  1
  O  O369  1  0.47866291  0.46081218  0.28051684  1
  C  C370  1  0.26434997  0.25837201  0.28040926  1
  C  C371  1  0.26784785  0.37316417  0.46598424  1
  N  N372  1  0.28798509  0.29473631  0.35775192  1
  H  H373  1  0.37372017  0.45088648  0.30404005  1
  O  O374  1  0.26970597  0.44678554  0.25093694  1
  O  O375  1  0.39453163  0.32848188  0.38344085  1
  C  C376  1  0.41524679  0.29883970  0.39624429  1
  N  N377  1  0.35241122  0.30304078  0.37349790  1
  N  N378  1  0.32677336  0.32614412  0.36726293  1
  H  H379  1  0.37904585  0.45201848  0.49749975  1
  Zn  Zn380  1  0.10718244  0.13682939  0.61374756  1
  N  N381  1  0.09349257  0.07442594  0.63504661  1
  C  C382  1  0.05451688  0.20460817  0.63674649  1
  N  N383  1  0.06646011  0.18357861  0.61308595  1
  N  N384  1  0.07536339  0.16137912  0.54533374  1
  C  C385  1  0.08203875  0.12290200  0.55077218  1
  Zn  Zn386  1  0.08263494  0.21397977  0.57478303  1
  N  N387  1  0.10567684  0.11241254  0.57362334  1
  N  N388  1  0.12586434  0.18687939  0.69454473  1
  N  N389  1  0.06276654  0.08218665  0.53942910  1
  H  H390  1  0.07046898  0.08291463  0.64540772  1
  H  H391  1  0.11203188  0.07427517  0.65238705  1
  N  N392  1  0.12944520  0.17160864  0.64589903  1
  C  C393  1  0.13392077  0.15733786  0.67345381  1
  N  N394  1  0.14342216  0.11081860  0.68074529  1
  H  H395  1  0.16406324  0.09570782  0.66753777  1
  H  H396  1  0.14632904  0.09928888  0.70300585  1
  N  N397  1  0.15695663  0.15845488  0.59253089  1
  Zn  Zn398  1  0.15844823  0.09949652  0.56846892  1
  N  N399  1  0.16185310  0.09022783  0.52111008  1
  C  C400  1  0.15944837  0.20018138  0.58348530  1
  N  N401  1  0.18980751  0.22077527  0.56785743  1
  N  N402  1  0.21390975  0.08337894  0.57903802  1
  N  N403  1  0.06329221  0.07606250  0.72637378  1
  H  H404  1  0.19857804  0.02775414  0.54584923  1
  N  N405  1  0.13287526  0.22839420  0.58921426  1
  N  N406  1  0.01886780  0.19754337  0.64870704  1
  N  N407  1  0.14215329  0.02600925  0.58473683  1
  H  H408  1  0.07180982  0.05221424  0.55022669  1
  H  H409  1  0.04342104  0.04990774  0.58710911  1
  O  O410  1  0.20479533  0.06909135  0.65785836  1
  N  N411  1  0.06181086  0.03501575  0.73151239  1
  N  N412  1  0.18196008  0.13565752  0.73566766  1
  N  N413  1  0.05028891  0.01817507  0.59438017  1
  N  N414  1  0.08969063  0.01999573  0.61664041  1
  C  C415  1  0.11800271  0.01849308  0.60053960  1
  C  C416  1  0.23247360  0.08496592  0.66759560  1
  H  H417  1  0.00938170  0.21544087  0.66673447  1
  H  H418  1  0.19414951  0.20835251  0.54647828  1
  Zn  Zn419  1  0.16119165  0.23719583  0.70772410  1
  N  N420  1  0.20474587  0.03063857  0.52405341  1
  H  H421  1  0.06295657  0.07448398  0.51650575  1
  N  N422  1  0.07683313  0.23272689  0.64961404  1
  N  N423  1  0.23981187  0.09341350  0.56377727  1
  H  H424  1  0.02787120  0.01036666  0.60638654  1
  H  H425  1  0.20112043  0.19010849  0.61879476  1
  H  H426  1  0.23591877  0.18474854  0.73113208  1
  N  N427  1  0.21892365  0.20328158  0.63307092  1
  C  C428  1  0.18383192  0.06188876  0.50711293  1
  O  O429  1  0.23356577  0.11911541  0.68400797  1
  H  H430  1  0.24640441  0.00424558  0.63845023  1
  N  N431  1  0.23079153  0.19144911  0.50614774  1
  O  O432  1  0.00708111  0.09690363  0.61724891  1
  H  H433  1  0.24496527  0.20854140  0.62662821  1
  Zn  Zn434  1  0.08418341  0.23376314  0.69375633  1
  C  C435  1  0.20586926  0.23325909  0.65614020  1
  N  N436  1  0.17270308  0.24089512  0.66478629  1
  Zn  Zn437  1  0.12948346  0.24309745  0.63769667  1
  O  O438  1  0.19395971  0.05239013  0.74060483  1
  N  N439  1  0.17302331  0.19627452  0.74912583  1
  N  N440  1  0.23630720  0.20585967  0.74965929  1
  O  O441  1  0.03370571  0.00068928  0.70718828  1
  N  N442  1  0.21145393  0.22423374  0.50178512  1
  H  H443  1  0.25449759  0.08578374  0.74370224  1
  C  C444  1  0.48991766  0.02270398  0.62104875  1
  H  H445  1  0.36294701  0.00752567  0.64521191  1
  O  O446  1  0.26587724  0.23137758  0.59585821  1
  C  C447  1  0.27045045  0.06431726  0.66001519  1
  C  C448  1  0.26992623  0.02229856  0.64501956  1
  O  O449  1  0.39765610  0.06228000  0.66400656  1
  H  H450  1  0.29888634  0.11941557  0.68264402  1
  C  C451  1  0.30120201  0.08707182  0.66951528  1
  C  C452  1  0.33348432  0.06574795  0.66369640  1
  O  O453  1  0.37682876  0.12466862  0.68334840  1
  C  C454  1  0.37234981  0.08688459  0.67172595  1
  H  H455  1  0.27863665  0.15698149  0.58384560  1
  C  C456  1  0.29858819  0.16666767  0.56688237  1
  O  O457  1  0.28411408  0.07808585  0.57877539  1
  C  C458  1  0.31842812  0.13189330  0.55327732  1
  C  C459  1  0.30897344  0.08238402  0.56072770  1
  O  O460  1  0.32458628  0.04995024  0.54753960  1
  C  C461  1  0.30731465  0.21241764  0.55910680  1
  N  N462  1  0.32241486  0.18454402  0.73209741  1
  N  N463  1  0.31521185  0.19491683  0.70665377  1
  C  C464  1  0.34543418  0.14118653  0.53215177  1
  C  C465  1  0.34994960  0.18836370  0.52574187  1
  N  N466  1  0.35824348  0.16476700  0.62629177  1
  N  N467  1  0.37612680  0.14462912  0.60736330  1
  H  H468  1  0.39896986  0.02988225  0.58615715  1
  H  H469  1  0.41148499  0.08936894  0.59665586  1
  N  N470  1  0.40634262  0.06403641  0.58152928  1
  C  C471  1  0.41852234  0.07325272  0.55211303  1
  Zn  Zn472  1  0.43707215  0.17310302  0.55973375  1
  N  N473  1  0.40430414  0.18841298  0.59290508  1
  H  H474  1  0.42888268  0.19238110  0.72233723  1
  N  N475  1  0.43075257  0.11283700  0.54095027  1
  H  H476  1  0.40407121  0.17745705  0.69152725  1
  N  N477  1  0.41275179  0.20475640  0.70434344  1
  N  N478  1  0.36885572  0.22206338  0.62408240  1
  N  N479  1  0.41661575  0.04062220  0.53035699  1
  N  N480  1  0.29843962  0.02518117  0.51719063  1
  C  C481  1  0.33439735  0.22593105  0.54009697  1
  C  C482  1  0.38970924  0.22804220  0.60068928  1
  C  C483  1  0.33659562  0.02258697  0.65043236  1
  N  N484  1  0.49202159  0.19053493  0.57023506  1
  H  H485  1  0.36238092  0.11602860  0.52213454  1
  O  O486  1  0.48856705  0.05871715  0.60708807  1
  C  C487  1  0.30383487  0.00221119  0.64103872  1
  C  C488  1  0.28203383  0.24677707  0.57381029  1
  O  O489  1  0.31093728  0.12455382  0.73830851  1
  H  H490  1  0.28173179  0.13448841  0.50900838  1
  O  O491  1  0.45964257  0.17361478  0.74945852  1
  N  N492  1  0.44497580  0.10196833  0.50439875  1
  O  O493  1  0.48934083  0.21837698  0.64110902  1
  N  N494  1  0.43849025  0.23171407  0.52765641  1
  C  C495  1  0.37718012  0.19635519  0.50096971  1
  H  H496  1  0.18969963  0.25511204  0.56195457  1
  C  C497  1  0.00636655  0.49316870  0.65554766  1
  N  N498  1  0.22925325  0.25482159  0.67268161  1
  N  N499  1  0.03360774  0.25546404  0.70522583  1
  H  H500  1  0.09901431  0.48354745  0.52050054  1
  Zn  Zn501  1  0.01764049  0.49070225  0.56716278  1
  N  N502  1  0.20689571  0.27968468  0.70239158  1
  N  N503  1  0.05751662  0.47484898  0.59888341  1
  N  N504  1  0.02071978  0.29372019  0.70475203  1
  N  N505  1  0.04265369  0.38079524  0.69680762  1
  C  C506  1  0.02711247  0.45752652  0.66621394  1
  N  N507  1  0.05230139  0.34145423  0.69329587  1
  N  N508  1  0.11741827  0.27943505  0.71518808  1
  C  C509  1  0.06264063  0.46050394  0.67961431  1
  N  N510  1  0.06461205  0.27608581  0.56002426  1
  N  N511  1  0.07362859  0.29320618  0.53650789  1
  N  N512  1  0.09576144  0.44141094  0.55985466  1
  O  O513  1  0.07662450  0.42279922  0.68808668  1
  O  O514  1  0.05411789  0.34925541  0.52993458  1
  C  C515  1  0.12177142  0.42089160  0.55658840  1
  N  N516  1  0.14433429  0.31476284  0.63440606  1
  C  C517  1  0.15278499  0.34346539  0.65440602  1
  N  N518  1  0.15030212  0.40069907  0.55062384  1
  N  N519  1  0.15046083  0.38236516  0.66024875  1
  H  H520  1  0.15778442  0.38970017  0.70977828  1
  N  N521  1  0.17448555  0.39631984  0.69237870  1
  H  H522  1  0.18126310  0.43069450  0.69365273  1
  H  H523  1  0.15092286  0.31308099  0.58354880  1
  H  H524  1  0.12690558  0.36045776  0.59470715  1
  N  N525  1  0.14883400  0.33896569  0.59824219  1
  O  O526  1  0.17770223  0.32675848  0.51271030  1
  Zn  Zn527  1  0.18368561  0.37595958  0.57947496  1
  N  N528  1  0.21727789  0.42817906  0.59779236  1
  N  N529  1  0.22782958  0.34625899  0.56464350  1
  N  N530  1  0.08693851  0.45766800  0.59760682  1
  O  O531  1  0.22542075  0.45546013  0.54692038  1
  N  N532  1  0.23194646  0.46035700  0.58592052  1
  H  H533  1  0.01627457  0.42435050  0.66363716  1
  C  C534  1  0.20989825  0.32422380  0.70239060  1
  N  N535  1  0.21400238  0.36366255  0.70028932  1
  H  H536  1  0.08245760  0.35473697  0.72958288  1
  C  C537  1  0.11348692  0.29614862  0.74130398  1
  N  N538  1  0.23568469  0.30905917  0.57538890  1
  O  O539  1  0.15569485  0.39846261  0.51216976  1
  C  C540  1  0.24150782  0.48636478  0.53155319  1
  H  H541  1  0.00653032  0.30114939  0.51310587  1
  C  C542  1  0.06163322  0.36101348  0.50398377  1
  C  C543  1  0.17901875  0.36795393  0.50454003  1
  N  N544  1  0.09907380  0.34160756  0.74651357  1
  N  N545  1  0.40852099  0.39176556  0.71514867  1
  N  N546  1  0.30979754  0.42514410  0.72057614  1
  C  C547  1  0.34463417  0.37961160  0.52385281  1
  O  O548  1  0.32704222  0.35421032  0.54286805  1
  O  O549  1  0.33719685  0.49978475  0.64504481  1
  H  H550  1  0.49376087  0.49841507  0.69838712  1
  O  O551  1  0.27825878  0.28699451  0.56427018  1
  N  N552  1  0.32907413  0.25192908  0.69510338  1
  H  H553  1  0.33690552  0.44204908  0.64155474  1
  N  N554  1  0.35328021  0.30899936  0.72071435  1
  N  N555  1  0.45118614  0.42031841  0.63108167  1
  H  H556  1  0.26851448  0.27393861  0.73023576  1
  N  N557  1  0.49011364  0.36070448  0.69747835  1
  Zn  Zn558  1  0.48362959  0.29816290  0.71139874  1
  C  C559  1  0.32924729  0.42801337  0.51867994  1
  N  N560  1  0.43111256  0.27861005  0.72038637  1
  N  N561  1  0.39267464  0.26645113  0.58035181  1
  H  H562  1  0.28556979  0.32356906  0.73760969  1
  C  C563  1  0.35077815  0.45991379  0.50336515  1
  C  C564  1  0.32526716  0.28068448  0.71727130  1
  N  N565  1  0.33060024  0.40775589  0.63764498  1
  O  O566  1  0.26486551  0.48789722  0.72157962  1
  N  N567  1  0.45201638  0.45719650  0.64413210  1
  Zn  Zn568  1  0.35254097  0.37875089  0.71711700  1
  H  H569  1  0.49106837  0.33436087  0.59678488  1
  N  N570  1  0.45704905  0.37715334  0.65734588  1
  N  N571  1  0.35195072  0.32891791  0.63557410  1
  C  C572  1  0.41764876  0.25296354  0.69837270  1
  Zn  Zn573  1  0.41707974  0.34525348  0.67856188  1
  N  N574  1  0.29246402  0.29042087  0.73284458  1
  N  N575  1  0.45105245  0.41948957  0.74491722  1
  Zn  Zn576  1  0.49854459  0.39090236  0.73770766  1
  H  H577  1  0.37857050  0.29501031  0.58253430  1
  H  H578  1  0.27836972  0.40834681  0.53809008  1
  C  C579  1  0.48741019  0.25847699  0.62999940  1
  N  N580  1  0.30944039  0.46663464  0.71650862  1
  H  H581  1  0.33996091  0.26206914  0.53453628  1
  N  N582  1  0.36828757  0.36901448  0.67422908  1
  O  O583  1  0.37387761  0.37111815  0.51491932  1
  H  H584  1  0.40726460  0.27425574  0.56164696  1
  N  N585  1  0.32992666  0.33295163  0.59935790  1
  C  C586  1  0.48885782  0.37759812  0.66985408  1
  N  N587  1  0.42164892  0.47068865  0.71031678  1
  C  C588  1  0.42798959  0.42815903  0.72333623  1
  N  N589  1  0.34726201  0.35447980  0.58062606  1
  N  N590  1  0.40745771  0.27597991  0.67484378  1
  C  C591  1  0.29436546  0.43638559  0.52749813  1
  C  C592  1  0.27999031  0.47971552  0.52110089  1
  N  N593  1  0.42762426  0.25555026  0.50768470  1
  H  H594  1  0.40088592  0.48184940  0.69404713  1
  Zn  Zn595  1  0.35797140  0.26796154  0.65718250  1
  H  H596  1  0.31930434  0.40072961  0.61678651  1
  O  O597  1  0.46037565  0.27835833  0.62452433  1
  C  C598  1  0.35116793  0.37064613  0.64801447  1
  Zn  Zn599  1  0.09606728  0.17051941  0.87844882  1
  N  N600  1  0.15285200  0.17977702  0.81798318  1
  C  C601  1  0.14251408  0.13759565  0.82726459  1
  N  N602  1  0.13421281  0.13282141  0.85577329  1
  Zn  Zn603  1  0.14617302  0.20058101  0.92720596  1
  Zn  Zn604  1  0.10990454  0.08943146  0.92358350  1
  N  N605  1  0.12838387  0.14565745  0.90661013  1
  N  N606  1  0.05779426  0.09766809  0.91350668  1
  N  N607  1  0.05759948  0.18337167  0.84525924  1
  Zn  Zn608  1  0.12374784  0.20611783  0.77596042  1
  C  C609  1  0.06497347  0.19261740  0.81784607  1
  N  N610  1  0.13098434  0.06466559  0.96142780  1
  N  N611  1  0.04773351  0.16994273  0.89877762  1
  C  C612  1  0.03906624  0.13583804  0.91611036  1
  N  N613  1  0.01981342  0.05229518  0.84512174  1
  N  N614  1  0.09325273  0.21663933  0.81092060  1
  N  N615  1  0.04276527  0.16745953  0.79634046  1
  N  N616  1  0.15076994  0.17719397  0.96925440  1
  C  C617  1  0.15079819  0.08873093  0.97836667  1
  Zn  Zn618  1  0.17240086  0.12069926  0.88728864  1
  H  H619  1  0.02578411  0.14339323  0.80317387  1
  H  H620  1  0.16847163  0.20324453  0.97594161  1
  N  N621  1  0.10359856  0.04897297  0.89072475  1
  N  N622  1  0.16075072  0.04532493  0.87779113  1
  N  N623  1  0.13547125  0.10054018  0.80726797  1
  H  H624  1  0.14376219  0.10180942  0.78557576  1
  H  H625  1  0.12562899  0.06814192  0.81451935  1
  N  N626  1  0.19443410  0.22376023  0.91845980  1
  N  N627  1  0.19818596  0.18473798  0.87577784  1
  C  C628  1  0.21415787  0.20577501  0.89703120  1
  N  N629  1  0.21516987  0.08042680  0.90718563  1
  Zn  Zn630  1  0.20233054  0.20530897  0.83232151  1
  Zn  Zn631  1  0.04594241  0.03948804  0.88448467  1
  C  C632  1  0.12779392  0.03342517  0.87231722  1
  H  H633  1  0.05551434  0.15240497  0.77912889  1
  C  C634  1  0.20245921  0.21267995  0.76390670  1
  N  N635  1  0.23134877  0.04529064  0.90137272  1
  N  N636  1  0.09949856  0.24359582  0.87760190  1
  N  N637  1  0.19612253  0.23356643  0.78855241  1
  O  O638  1  0.05457958  0.10213784  0.97746366  1
  H  H639  1  0.12537823  0.18377233  0.97452991  1
  N  N640  1  0.16412873  0.12311763  0.98557586  1
  Zn  Zn641  1  0.01714752  0.21299802  0.87105972  1
  N  N642  1  0.22071366  0.01308486  0.86671126  1
  Zn  Zn643  1  0.12773129  0.24760914  0.84042532  1
  N  N644  1  0.19141022  0.01498680  0.85530788  1
  C  C645  1  0.01424935  0.02355090  0.82317839  1
  C  C646  1  0.20337658  0.02443080  0.76204892  1
  N  N647  1  0.18608841  0.10767923  0.75530166  1
  O  O648  1  0.13188945  0.00825089  0.97591178  1
  O  O649  1  0.00472614  0.07227589  0.99177158  1
  C  C650  1  0.03711616  0.07726121  0.99438078  1
  N  N651  1  0.11912164  0.00865166  0.84554271  1
  C  C652  1  0.23996836  0.03167411  0.77528842  1
  N  N653  1  0.09375263  0.15106663  0.75032271  1
  N  N654  1  0.09031577  0.11029741  0.75630575  1
  N  N655  1  0.01310693  0.14120223  0.93944446  1
  H  H656  1  0.00872896  0.11222949  0.95283291  1
  H  H657  1  0.24728092  0.24323923  0.78817682  1
  N  N658  1  0.25073580  0.22086235  0.89700234  1
  N  N659  1  0.25510007  0.19091717  0.82752165  1
  C  C660  1  0.42265066  0.01066340  0.78211182  1
  O  O661  1  0.39670471  0.02290977  0.76771213  1
  C  C662  1  0.26283619  0.06496958  0.76246149  1
  C  C663  1  0.28595988  0.00908266  0.80866669  1
  H  H664  1  0.26266917  0.22596173  0.91689379  1
  C  C665  1  0.48495502  0.11437162  0.77737821  1
  H  H666  1  0.26792755  0.20255507  0.88495399  1
  C  C667  1  0.28955488  0.19585082  0.96013585  1
  C  C668  1  0.29078931  0.17604646  0.99158225  1
  N  N669  1  0.27699241  0.15124199  0.85315085  1
  N  N670  1  0.30688332  0.16602006  0.85656542  1
  N  N671  1  0.38992173  0.18428391  0.80628274  1
  N  N672  1  0.30812512  0.21713842  0.83455717  1
  C  C673  1  0.27885691  0.22101037  0.81964688  1
  H  H674  1  0.33284526  0.05385038  0.80977910  1
  C  C675  1  0.30723228  0.04470381  0.79917467  1
  H  H676  1  0.32307609  0.11732177  0.97927288  1
  H  H677  1  0.37912705  0.16015698  0.79220147  1
  C  C678  1  0.29661283  0.07006257  0.77412057  1
  O  O679  1  0.34477170  0.12443731  0.77864317  1
  O  O680  1  0.26925318  0.22821150  0.95631561  1
  C  C681  1  0.45838429  0.03827041  0.78409426  1
  H  H682  1  0.38015805  0.18052942  0.82689393  1
  C  C683  1  0.31962611  0.11014920  0.76398693  1
  O  O684  1  0.42355987  0.19859537  0.86618620  1
  C  C685  1  0.45429758  0.18770979  0.86127880  1
  O  O686  1  0.30218401  0.17030060  0.94050589  1
  C  C687  1  0.38640854  0.23244564  0.79636753  1
  C  C688  1  0.48367807  0.16435425  0.76736337  1
  C  C689  1  0.45783485  0.08202169  0.77188618  1
  C  C690  1  0.31036730  0.13583579  0.99788148  1
  C  C691  1  0.48760092  0.02500555  0.80125398  1
  H  H692  1  0.43424597  0.09287255  0.75870664  1
  O  O693  1  0.46275307  0.14855029  0.85581508  1
  C  C694  1  0.48517140  0.22565181  0.86096897  1
  N  N695  1  0.38892895  0.24119669  0.77091605  1
  H  H696  1  0.25883820  0.19509749  0.76180123  1
  O  O697  1  0.49543749  0.00534047  0.92804570  1
  C  C698  1  0.25169846  0.00015256  0.79661382  1
  N  N699  1  0.01459285  0.27090020  0.90193474  1
  N  N700  1  0.12889054  0.26190485  0.91966915  1
  N  N701  1  0.20122166  0.25375292  0.99340204  1
  N  N702  1  0.01730248  0.25817908  0.83341606  1
  O  O703  1  0.02033144  0.31430910  0.79182959  1
  H  H704  1  0.00459810  0.44764785  0.77526316  1
  N  N705  1  0.01821009  0.29912534  0.83022432  1
  C  C706  1  0.10318802  0.27236631  0.90026429  1
  H  H707  1  0.12721641  0.49731440  0.84464275  1
  C  C708  1  0.01924825  0.35755357  0.78664944  1
  N  N709  1  0.18054522  0.27219086  0.83776704  1
  H  H710  1  0.05089242  0.30009859  0.90577462  1
  N  N711  1  0.12802269  0.27487799  0.76461227  1
  C  C712  1  0.16094278  0.47222151  0.81072714  1
  H  H713  1  0.08069119  0.32519910  0.92959150  1
  N  N714  1  0.13115264  0.49538257  0.93910457  1
  N  N715  1  0.10125806  0.49235150  0.94812095  1
  O  O716  1  0.04198146  0.38423417  0.79543608  1
  N  N717  1  0.07768460  0.30615371  0.90947250  1
  Zn  Zn718  1  0.17739463  0.29072091  0.92270370  1
  N  N719  1  0.14428498  0.35352529  0.86565843  1
  C  C720  1  0.13099664  0.34934311  0.84233437  1
  H  H721  1  0.11801014  0.40168209  0.81180172  1
  N  N722  1  0.10665550  0.38573876  0.82975556  1
  H  H723  1  0.08156610  0.37947694  0.82323315  1
  N  N724  1  0.12967520  0.31364975  0.82400842  1
  O  O725  1  0.13597828  0.48291775  0.90173346  1
  C  C726  1  0.16948323  0.46858385  0.89417463  1
  N  N727  1  0.14639791  0.36509943  0.97461297  1
  H  H728  1  0.16260817  0.39116134  0.96452407  1
  C  C729  1  0.16226683  0.32249388  0.98534366  1
  N  N730  1  0.18222057  0.29376255  0.96944569  1
  N  N731  1  0.17798978  0.31658813  0.87894948  1
  Zn  Zn732  1  0.16970473  0.29855696  0.79291165  1
  C  C733  1  0.17753608  0.46591352  0.86150432  1
  C  C734  1  0.19827830  0.30262662  0.85732876  1
  N  N735  1  0.23311384  0.31525120  0.85240506  1
  C  C736  1  0.21033534  0.44661443  0.85374458  1
  N  N737  1  0.21186694  0.33209182  0.76452705  1
  C  C738  1  0.19374079  0.45493621  0.80050074  1
  O  O739  1  0.19212249  0.45537575  0.91151416  1
  N  N740  1  0.19201674  0.36202211  0.77177480  1
  C  C741  1  0.15163720  0.47916843  0.84059707  1
  C  C742  1  0.21652479  0.44255388  0.82312216  1
  H  H743  1  0.20329048  0.45218452  0.77667408  1
  H  H744  1  0.13084195  0.38238791  0.98929752  1
  H  H745  1  0.22978644  0.43437625  0.87072449  1
  H  H746  1  0.08570405  0.34782094  0.76593750  1
  O  O747  1  0.21639677  0.34822465  0.92410737  1
  C  C748  1  0.13447454  0.48642320  0.78656251  1
  H  H749  1  0.22140070  0.35301469  0.97947703  1
  O  O750  1  0.18557846  0.43726473  0.99213826  1
  C  C751  1  0.06730859  0.49219348  0.99657100  1
  H  H752  1  0.24907792  0.33342941  0.86866686  1
  O  O753  1  0.13907143  0.47088425  0.76069589  1
  N  N754  1  0.35864842  0.35851625  0.76131741  1
  H  H755  1  0.44372134  0.26828558  0.87936408  1
  O  O756  1  0.26415053  0.43532826  0.78928276  1
  O  O757  1  0.38609906  0.32718896  0.95861390  1
  N  N758  1  0.39761321  0.49455363  0.84974168  1
  C  C759  1  0.49288785  0.30666819  0.87096129  1
  H  H760  1  0.25689297  0.44432301  0.97960492  1
  Zn  Zn761  1  0.39314765  0.30385987  0.75277169  1
  H  H762  1  0.30917760  0.42249502  0.78162164  1
  H  H763  1  0.25011559  0.30701649  0.83489213  1
  C  C764  1  0.25168026  0.35630708  0.97877734  1
  N  N765  1  0.41881034  0.46980206  0.80548472  1
  C  C766  1  0.25030239  0.34603171  0.92355547  1
  C  C767  1  0.25982691  0.47600812  0.99316331  1
  C  C768  1  0.36037538  0.38853419  0.78373739  1
  N  N769  1  0.27043742  0.25481142  0.79694090  1
  O  O770  1  0.32608747  0.45662258  0.96212573  1
  Zn  Zn771  1  0.40747538  0.32539155  0.81945640  1
  C  C772  1  0.27145757  0.35080950  0.95273972  1
  H  H773  1  0.32171181  0.33626497  0.93064748  1
  C  C774  1  0.30834514  0.34388801  0.95220193  1
  Zn  Zn775  1  0.43794693  0.40765572  0.78542687  1
  C  C776  1  0.36810091  0.33161485  0.98097905  1
  H  H777  1  0.34234317  0.45251548  0.80191122  1
  N  N778  1  0.45850954  0.46242542  0.84070304  1
  H  H779  1  0.28950439  0.26468828  0.78133661  1
  N  N780  1  0.28994013  0.35337986  0.82043915  1
  C  C781  1  0.39039493  0.31446549  0.88168639  1
  C  C782  1  0.32755354  0.34384932  0.97859728  1
  H  H783  1  0.47354034  0.48764142  0.90170828  1
  N  N784  1  0.49945696  0.47990840  0.89643088  1
  O  O785  1  0.44315497  0.35115567  0.89151967  1
  N  N786  1  0.36537401  0.29138929  0.88346357  1
  O  O787  1  0.30638625  0.48018885  0.89073279  1
  N  N788  1  0.33782864  0.42855918  0.78518488  1
  N  N789  1  0.41424790  0.33037089  0.86378438  1
  C  C790  1  0.25251460  0.42507232  0.81330935  1
  N  N791  1  0.47666284  0.41591290  0.82279043  1
  C  C792  1  0.32315211  0.49046020  0.97764574  1
  C  C793  1  0.42617538  0.47759532  0.83014918  1
  C  C794  1  0.47136180  0.26668841  0.87225082  1
  N  N795  1  0.37970535  0.26809736  0.81516240  1
  C  C796  1  0.47665305  0.34951600  0.88316055  1
  O  O797  1  0.26766856  0.33849607  0.90112830  1
  H  H798  1  0.46486530  0.25213142  0.80358972  1
  N  N799  1  0.48169654  0.27898086  0.80027908  1
  N  N800  1  0.38939410  0.38436898  0.80011635  1
  C  C801  1  0.47056095  0.31222454  0.77691345  1
  O  O802  1  0.27057655  0.40525435  0.83422363  1
  O  O803  1  0.49491019  0.38417276  0.88569117  1
  N  N804  1  0.48985386  0.32577864  0.75586006  1
  N  N805  1  0.30699917  0.33348160  0.83994231  1
  Zn  Zn806  1  0.33945082  0.27288665  0.84487615  1
  N  N807  1  0.43856605  0.33412564  0.78009905  1
  N  N808  1  0.09073387  0.64701064  0.15078712  1
  C  C809  1  0.11840866  0.63093267  0.15308131  1
  N  N810  1  0.04959214  0.54479947  0.15702895  1
  N  N811  1  0.05426146  0.53864115  0.18349764  1
  Zn  Zn812  1  0.04190241  0.61321622  0.13670417  1
  N  N813  1  0.15193481  0.62588461  0.15594934  1
  N  N814  1  0.17396400  0.62716901  0.09126079  1
  N  N815  1  0.17085783  0.59436269  0.12534653  1
  N  N816  1  0.17560777  0.66884627  0.09424392  1
  H  H817  1  0.15702797  0.56544776  0.12271332  1
  N  N818  1  0.17494623  0.64873766  0.22759786  1
  N  N819  1  0.15475977  0.53404697  0.18638871  1
  H  H820  1  0.19411733  0.58175590  0.13218011  1
  Zn  Zn821  1  0.18340014  0.67233799  0.18094274  1
  Zn  Zn822  1  0.19947797  0.55405720  0.21161289  1
  N  N823  1  0.02825207  0.63506794  0.09324215  1
  N  N824  1  0.23420275  0.58174662  0.17789206  1
  N  N825  1  0.23715340  0.65986353  0.17504977  1
  N  N826  1  0.22451666  0.51123618  0.14870802  1
  N  N827  1  0.18018931  0.61012966  0.23740509  1
  N  N828  1  0.14581492  0.72019103  0.16953288  1
  N  N829  1  0.10805501  0.71961681  0.21163971  1
  H  H830  1  0.03604026  0.65912807  0.21109594  1
  H  H831  1  0.02373796  0.70667994  0.18857834  1
  N  N832  1  0.22263964  0.72766344  0.10851842  1
  H  H833  1  0.09166489  0.69281116  0.20720841  1
  N  N834  1  0.01589196  0.67391880  0.19668869  1
  N  N835  1  0.23457996  0.73387892  0.05552166  1
  N  N836  1  0.20915732  0.73292674  0.16646276  1
  N  N837  1  0.07746179  0.62741932  0.23759444  1
  Zn  Zn838  1  0.17294083  0.73742394  0.12830091  1
  H  H839  1  0.10670966  0.71612627  0.11626930  1
  N  N840  1  0.12341308  0.73603640  0.10327142  1
  N  N841  1  0.24708460  0.54158223  0.14954242  1
  H  H842  1  0.08714326  0.55500076  0.24347751  1
  N  N843  1  0.04966853  0.60722259  0.24228539  1
  H  H844  1  0.23341042  0.69729074  0.05425560  1
  H  H845  1  0.12468322  0.70240902  0.22655681  1
  C  C846  1  0.12597261  0.74435764  0.18695440  1
  N  N847  1  0.12666512  0.50364432  0.09404893  1
  C  C848  1  0.23785579  0.74999816  0.08624236  1
  N  N849  1  0.00419043  0.63980609  0.07531459  1
  H  H850  1  0.00283159  0.51096266  0.24665907  1
  H  H851  1  0.13461284  0.74610223  0.08301537  1
  N  N852  1  0.00363433  0.63137486  0.17080044  1
  N  N853  1  0.10436740  0.52665233  0.24785865  1
  C  C854  1  0.00665741  0.52163864  0.00816462  1
  H  H855  1  0.20797298  0.54194342  0.03667257  1
  C  C856  1  0.23181012  0.53286333  0.02373302  1
  H  H857  1  0.24136777  0.74167321  0.22207156  1
  O  O858  1  0.01842743  0.69454867  0.00267341  1
  C  C859  1  0.02802530  0.61204513  0.00416094  1
  C  C860  1  0.04083804  0.66212094  0.00240069  1
  C  C861  1  0.25136330  0.61956536  0.17833557  1
  Zn  Zn862  1  0.25250056  0.70715638  0.14385906  1
  C  C863  1  0.26196553  0.56434087  0.02641176  1
  O  O864  1  0.26311592  0.60259157  0.03875182  1
  N  N865  1  0.40212852  0.52608039  0.01737856  1
  C  C866  1  0.47211287  0.66248514  0.05306209  1
  N  N867  1  0.29077604  0.61642819  0.17997620  1
  H  H868  1  0.29966249  0.61903405  0.15753782  1
  H  H869  1  0.29976232  0.58496374  0.18640466  1
  N  N870  1  0.28001907  0.65808546  0.11649928  1
  H  H871  1  0.38351613  0.65917379  0.04492484  1
  C  C872  1  0.41085032  0.64729016  0.04206568  1
  C  C873  1  0.43498050  0.67370773  0.05587807  1
  C  C874  1  0.42042145  0.60700274  0.02401606  1
  C  C875  1  0.45719902  0.59779118  0.02190308  1
  N  N876  1  0.30340545  0.64573355  0.10068536  1
  N  N877  1  0.36473761  0.67948854  0.09041281  1
  N  N878  1  0.33549962  0.69480130  0.09687177  1
  N  N879  1  0.29329828  0.68075426  0.03096359  1
  N  N880  1  0.29352288  0.64148896  0.02146564  1
  C  C881  1  0.42476008  0.71464892  0.07465994  1
  N  N882  1  0.48569272  0.70810359  0.23562856  1
  O  O883  1  0.39167030  0.72596172  0.07587142  1
  C  C884  1  0.48248795  0.62433303  0.03709084  1
  H  H885  1  0.49263376  0.68142479  0.06609718  1
  H  H886  1  0.34283018  0.73201503  0.13665634  1
  H  H887  1  0.25655559  0.74167168  0.04178770  1
  O  O888  1  0.32703524  0.71688191  0.01416340  1
  O  O889  1  0.44732710  0.73750151  0.08906565  1
  N  N890  1  0.33970418  0.74064122  0.15875251  1
  O  O891  1  0.39489544  0.58534792  0.01221190  1
  H  H892  1  0.46833875  0.57087998  0.00732318  1
  H  H893  1  0.31537679  0.56747538  0.00817984  1
  N  N894  1  0.41388863  0.73864255  0.23789307  1
  C  C895  1  0.49560041  0.74509329  0.23033695  1
  C  C896  1  0.35404018  0.50969703  0.24730804  1
  C  C897  1  0.40223617  0.57511507  0.24322885  1
  O  O898  1  0.40730794  0.61669650  0.24693694  1
  O  O899  1  0.42657521  0.54877427  0.23448791  1
  H  H900  1  0.43326334  0.66307942  0.24864787  1
  C  C901  1  0.29122780  0.54542573  0.00913975  1
  N  N902  1  0.00857602  0.75681915  0.22785658  1
  N  N903  1  0.05867550  0.75727177  0.13323955  1
  N  N904  1  0.02818857  0.99302402  0.16471714  1
  C  C905  1  0.01135816  0.98373568  0.08371457  1
  O  O906  1  0.16888920  0.98272363  0.21257715  1
  N  N907  1  0.00399983  0.92073635  0.22304580  1
  O  O908  1  0.20870298  0.93615143  0.22991229  1
  N  N909  1  0.05369645  0.97208574  0.21523328  1
  O  O910  1  0.03188101  0.86961616  0.05224996  1
  O  O911  1  0.07835453  0.91403219  0.06408627  1
  C  C912  1  0.05929810  0.89635449  0.04580165  1
  C  C913  1  0.04308244  0.76838931  0.15447653  1
  N  N914  1  0.03732732  0.78624705  0.17833835  1
  N  N915  1  0.11949849  0.78764996  0.18267963  1
  H  H916  1  0.05701135  0.94204837  0.12996627  1
  N  N917  1  0.04246596  0.82161751  0.07530343  1
  Zn  Zn918  1  0.02900395  0.93001976  0.18488783  1
  N  N919  1  0.07264877  0.88291441  0.17406285  1
  C  C920  1  0.08751019  0.88650466  0.14810245  1
  N  N921  1  0.07260245  0.82533651  0.08471522  1
  Zn  Zn922  1  0.07418195  0.82559984  0.20110602  1
  N  N923  1  0.11088073  0.85233909  0.14303038  1
  Zn  Zn924  1  0.10444627  0.79214755  0.11655763  1
  N  N925  1  0.07810468  0.91907553  0.12569737  1
  Zn  Zn926  1  0.15692357  0.83389574  0.16343411  1
  N  N927  1  0.16194772  0.81148387  0.12051651  1
  N  N928  1  0.15838473  0.85318797  0.07148760  1
  H  H929  1  0.16593177  0.88044851  0.05912507  1
  H  H930  1  0.13226076  0.84845068  0.06773737  1
  C  C931  1  0.17581311  0.83869426  0.09896357  1
  H  H932  1  0.15445245  0.90120105  0.19118981  1
  N  N933  1  0.16705138  0.87264035  0.19902177  1
  H  H934  1  0.19474658  0.87553037  0.19619542  1
  N  N935  1  0.20814472  0.85033469  0.10434055  1
  N  N936  1  0.21063364  0.80917240  0.17116640  1
  C  C937  1  0.21426058  0.77098995  0.18490392  1
  H  H938  1  0.08128008  0.91375972  0.10203119  1
  N  N939  1  0.22397600  0.87218818  0.02978977  1
  N  N940  1  0.22489246  0.76942541  0.21573377  1
  Zn  Zn941  1  0.24802168  0.85422243  0.07027076  1
  N  N942  1  0.15585298  0.87211255  0.23756978  1
  C  C943  1  0.12546742  0.87315198  0.24183878  1
  N  N944  1  0.09323733  0.86466217  0.23665125  1
  Zn  Zn945  1  0.24771596  0.81977375  0.13283286  1
  N  N946  1  0.23731501  0.92828211  0.19862322  1
  N  N947  1  0.04612716  0.81222910  0.23963261  1
  N  N948  1  0.21997473  0.91286342  0.02574189  1
  C  C949  1  0.19027230  0.97278764  0.23104756  1
  O  O950  1  0.01944611  0.95984278  0.10577031  1
  H  H951  1  0.09892100  0.96087899  0.01993099  1
  C  C952  1  0.05101605  0.97093199  0.24460827  1
  C  C953  1  0.06744931  0.90054616  0.01283850  1
  H  H954  1  0.23507057  0.79730959  0.22640628  1
  C  C955  1  0.03029314  0.77439845  0.24858494  1
  H  H956  1  0.08437346  0.99135960  0.09814297  1
  C  C957  1  0.08889317  0.93693286  0.00339694  1
  H  H958  1  0.02966619  0.84317828  0.00340396  1
  N  N959  1  0.27989124  0.87533894  0.13239550  1
  C  C960  1  0.28530708  0.99893847  0.15146661  1
  C  C961  1  0.32803965  0.75876451  0.02432552  1
  C  C962  1  0.38867466  0.77184942  0.00268627  1
  N  N963  1  0.36049672  0.78875918  0.24218767  1
  O  O964  1  0.27699535  0.99977444  0.12419237  1
  H  H965  1  0.36438549  0.75233299  0.16473621  1
  O  O966  1  0.30175168  0.77832980  0.03460274  1
  O  O967  1  0.30867622  0.97425343  0.16218850  1
  N  N968  1  0.27881637  0.76727359  0.15114816  1
  N  N969  1  0.39230203  0.93557663  0.17824446  1
  N  N970  1  0.47540192  0.77087399  0.06580992  1
  H  H971  1  0.39597948  0.97008976  0.17269958  1
  N  N972  1  0.41952812  0.79702374  0.15415587  1
  H  H973  1  0.35263267  0.83531556  0.06030355  1
  C  C974  1  0.36219558  0.92145675  0.19620188  1
  C  C975  1  0.49362083  0.91702328  0.15284000  1
  H  H976  1  0.33215734  0.93556236  0.14108752  1
  N  N977  1  0.40438085  0.79253594  0.17775783  1
  H  H978  1  0.47289385  0.80026669  0.14087489  1
  H  H979  1  0.34345811  0.93948807  0.10363196  1
  N  N980  1  0.34925351  0.94312388  0.21519484  1
  N  N981  1  0.25621213  0.89464145  0.20195053  1
  O  O982  1  0.43875852  0.90785553  0.05061766  1
  N  N983  1  0.34525159  0.88198196  0.18796370  1
  N  N984  1  0.29469243  0.88308641  0.08403283  1
  H  H985  1  0.40108151  0.91843811  0.15886171  1
  C  C986  1  0.36380065  0.78611333  0.02388850  1
  N  N987  1  0.31487015  0.80772800  0.18192436  1
  N  N988  1  0.25444985  0.78783801  0.09100222  1
  C  C989  1  0.43016668  0.83142380  0.01650631  1
  N  N990  1  0.33375798  0.91647151  0.12024069  1
  H  H991  1  0.45707534  0.84696576  0.01425106  1
  N  N992  1  0.41706582  0.84717231  0.10808051  1
  C  C993  1  0.37139469  0.82300416  0.04258898  1
  O  O994  1  0.39773613  0.88904293  0.08401054  1
  C  C995  1  0.30953413  0.77157364  0.16402913  1
  N  N996  1  0.40133233  0.84252201  0.13200850  1
  C  C997  1  0.40467564  0.84481633  0.03777874  1
  C  C998  1  0.30083632  0.89357722  0.11118589  1
  Zn  Zn999  1  0.35845571  0.82045001  0.20240640  1
  N  N1000  1  0.32257792  0.91372007  0.05498906  1
  N  N1001  1  0.47623430  0.82899973  0.22610593  1
  N  N1002  1  0.31572523  0.89927789  0.03021141  1
  Zn  Zn1003  1  0.29515418  0.87102460  0.17500591  1
  C  C1004  1  0.41334147  0.88496106  0.05843741  1
  H  H1005  1  0.43260266  0.99032408  0.22123486  1
  N  N1006  1  0.44555330  0.98961229  0.24206789  1
  N  N1007  1  0.04387608  0.55449705  0.35514122  1
  N  N1008  1  0.11955324  0.69412358  0.44875170  1
  C  C1009  1  0.02797034  0.64570767  0.48761995  1
  C  C1010  1  0.02091053  0.62733007  0.40477794  1
  N  N1011  1  0.04824639  0.60881861  0.41415176  1
  Zn  Zn1012  1  0.08807719  0.63486703  0.44230769  1
  N  N1013  1  0.06128975  0.64093528  0.48194984  1
  N  N1014  1  0.09701176  0.56729754  0.43384198  1
  Zn  Zn1015  1  0.08613126  0.57064318  0.38607096  1
  C  C1016  1  0.10766623  0.72254303  0.46943854  1
  N  N1017  1  0.10643599  0.63254563  0.39822852  1
  N  N1018  1  0.15451773  0.55376001  0.45874404  1
  C  C1019  1  0.11964031  0.53922836  0.44492896  1
  N  N1020  1  0.11520649  0.51782177  0.37133274  1
  C  C1021  1  0.14735189  0.51777533  0.35939502  1
  H  H1022  1  0.15882390  0.67838734  0.34670303  1
  H  H1023  1  0.16780420  0.58837251  0.36379129  1
  N  N1024  1  0.17415580  0.55295039  0.36534242  1
  Zn  Zn1025  1  0.16802280  0.71051900  0.42853439  1
  H  H1026  1  0.19599812  0.55144065  0.35177416  1
  C  C1027  1  0.13704180  0.64766790  0.38724489  1
  N  N1028  1  0.16409704  0.65545561  0.40565995  1
  N  N1029  1  0.14077683  0.65347738  0.35548461  1
  H  H1030  1  0.11918042  0.65141355  0.34106133  1
  N  N1031  1  0.19679999  0.61574743  0.41288668  1
  N  N1032  1  0.21046456  0.67250859  0.44339105  1
  Zn  Zn1033  1  0.22259730  0.69384028  0.48225673  1
  N  N1034  1  0.03215693  0.53645050  0.33281657  1
  N  N1035  1  0.04021460  0.60773255  0.28268043  1
  H  H1036  1  0.03900730  0.57820599  0.29338517  1
  N  N1037  1  0.07862283  0.63634917  0.29502965  1
  C  C1038  1  0.22002931  0.63206172  0.43128145  1
  H  H1039  1  0.02785186  0.70778418  0.37743167  1
  H  H1040  1  0.16963799  0.57702979  0.44654667  1
  H  H1041  1  0.01746609  0.62759932  0.28918751  1
  N  N1042  1  0.09574401  0.64836706  0.27368141  1
  O  O1043  1  0.21324466  0.51277478  0.44972895  1
  N  N1044  1  0.00566189  0.66828656  0.46535184  1
  C  C1045  1  0.01286999  0.73431004  0.36467840  1
  H  H1046  1  0.00634591  0.66298529  0.44243213  1
  H  H1047  1  0.02252479  0.72320404  0.28256598  1
  H  H1048  1  0.17223989  0.52399839  0.46255759  1
  H  H1049  1  0.05230360  0.50986303  0.48015966  1
  N  N1050  1  0.24549315  0.60311698  0.44659583  1
  O  O1051  1  0.00029299  0.63935813  0.35304730  1
  N  N1052  1  0.19077820  0.74335551  0.46722295  1
  H  H1053  1  0.12530268  0.53838800  0.26050867  1
  H  H1054  1  0.24964133  0.69174845  0.36370403  1
  H  H1055  1  0.04532269  0.51357800  0.44300706  1
  N  N1056  1  0.03229862  0.51423293  0.46381251  1
  H  H1057  1  0.01869459  0.74888362  0.47676109  1
  N  N1058  1  0.15151910  0.58877704  0.49843905  1
  N  N1059  1  0.10170791  0.70422131  0.49518195  1
  H  H1060  1  0.25263990  0.57393207  0.43442964  1
  O  O1061  1  0.26886549  0.50501868  0.43328220  1
  O  O1062  1  0.25468590  0.60066204  0.29337951  1
  H  H1063  1  0.47010881  0.53695144  0.29996816  1
  C  C1064  1  0.33181776  0.50966785  0.33320038  1
  O  O1065  1  0.38864099  0.52911018  0.47733785  1
  C  C1066  1  0.35677322  0.53887905  0.48598850  1
  N  N1067  1  0.40972974  0.58534160  0.47495101  1
  H  H1068  1  0.26918097  0.61877116  0.44959111  1
  N  N1069  1  0.27284073  0.70932717  0.37153022  1
  C  C1070  1  0.38864422  0.55970492  0.33457061  1
  O  O1071  1  0.31608301  0.54187670  0.34491017  1
  N  N1072  1  0.32210525  0.63009431  0.43181496  1
  N  N1073  1  0.32861244  0.66533108  0.44522499  1
  N  N1074  1  0.29828106  0.64667995  0.40034710  1
  H  H1075  1  0.40982377  0.68496283  0.38483039  1
  C  C1076  1  0.29341410  0.69087434  0.40079861  1
  N  N1077  1  0.31990779  0.66916048  0.31748613  1
  N  N1078  1  0.38635112  0.61389239  0.47809280  1
  H  H1079  1  0.37725379  0.58764890  0.34716318  1
  N  N1080  1  0.30681896  0.71102077  0.42414376  1
  C  C1081  1  0.42370685  0.56362998  0.32645823  1
  O  O1082  1  0.42589243  0.63685487  0.35096351  1
  C  C1083  1  0.44157969  0.61515431  0.33214817  1
  H  H1084  1  0.26848105  0.52445973  0.27646819  1
  C  C1085  1  0.28418941  0.61427976  0.28553848  1
  O  O1086  1  0.29218863  0.65714888  0.28654951  1
  N  N1087  1  0.33153338  0.70840475  0.31896283  1
  O  O1088  1  0.34655711  0.58069096  0.48734401  1
  H  H1089  1  0.28933761  0.70732209  0.35314544  1
  O  O1090  1  0.46775480  0.62722213  0.31794410  1
  O  O1091  1  0.36073667  0.71539210  0.35000332  1
  C  C1092  1  0.29665779  0.72559054  0.49585693  1
  C  C1093  1  0.37084235  0.51890808  0.32532057  1
  C  C1094  1  0.44197851  0.53214997  0.30907527  1
  O  O1095  1  0.45799004  0.64994504  0.41702996  1
  H  H1096  1  0.36402596  0.72569560  0.45533742  1
  C  C1097  1  0.30956855  0.57769850  0.27363676  1
  C  C1098  1  0.29580731  0.53257952  0.26846557  1
  H  H1099  1  0.40477612  0.73078513  0.45354430  1
  H  H1100  1  0.45127235  0.69870661  0.27435398  1
  H  H1101  1  0.35271446  0.62453350  0.26833147  1
  C  C1102  1  0.34357067  0.58861755  0.26467270  1
  C  C1103  1  0.36556646  0.55470866  0.25169048  1
  C  C1104  1  0.31890759  0.50095670  0.25578381  1
  N  N1105  1  0.38674891  0.73964029  0.25316964  1
  N  N1106  1  0.38242398  0.74563968  0.44594610  1
  C  C1107  1  0.47273423  0.68775723  0.41721392  1
  C  C1108  1  0.42383855  0.71931835  0.38378808  1
  C  C1109  1  0.45509400  0.72833355  0.39900634  1
  N  N1110  1  0.42925758  0.73618844  0.49369766  1
  N  N1111  1  0.27303816  0.69223645  0.49932093  1
  N  N1112  1  0.44465125  0.69662777  0.25256070  1
  C  C1113  1  0.33462695  0.50316811  0.49937457  1
  N  N1114  1  0.03341869  0.75408909  0.27721741  1
  N  N1115  1  0.04558652  0.98927258  0.37113208  1
  H  H1116  1  0.00125485  0.92414180  0.45506790  1
  C  C1117  1  0.00347127  0.81493151  0.35098744  1
  H  H1118  1  0.04342523  0.76663616  0.29691182  1
  C  C1119  1  0.18843356  0.99559832  0.26245075  1
  N  N1120  1  0.19988485  0.76927545  0.40319042  1
  C  C1121  1  0.22500965  0.76859565  0.38804401  1
  H  H1122  1  0.01235051  0.85135723  0.35319355  1
  H  H1123  1  0.01207829  0.91861338  0.31379648  1
  H  H1124  1  0.00750175  0.94379184  0.42213317  1
  N  N1125  1  0.13952095  0.76333232  0.39661970  1
  N  N1126  1  0.13928055  0.98058131  0.38857338  1
  C  C1127  1  0.02064249  0.78139304  0.36858426  1
  N  N1128  1  0.10434068  0.77063723  0.46197870  1
  N  N1129  1  0.21588825  0.97064355  0.47369945  1
  Zn  Zn1130  1  0.08927126  0.95007823  0.38544093  1
  O  O1131  1  0.07216699  0.77018764  0.39847592  1
  N  N1132  1  0.02076236  0.92927005  0.43989438  1
  N  N1133  1  0.11562914  0.78334608  0.38403380  1
  H  H1134  1  0.10650618  0.78520381  0.44038209  1
  C  C1135  1  0.04875613  0.79989345  0.38982008  1
  O  O1136  1  0.05021493  0.84058069  0.39415063  1
  N  N1137  1  0.09136843  0.90706800  0.34838542  1
  C  C1138  1  0.06561344  0.90551580  0.32673075  1
  N  N1139  1  0.07430766  0.87251916  0.30648823  1
  N  N1140  1  0.11367951  0.84913241  0.31536348  1
  N  N1141  1  0.06629792  0.89953141  0.47204201  1
  C  C1142  1  0.05679896  0.91985970  0.44672343  1
  N  N1143  1  0.08432991  0.92578654  0.42927841  1
  N  N1144  1  0.11210293  0.89473296  0.47178923  1
  N  N1145  1  0.12280338  0.90840171  0.44778593  1
  N  N1146  1  0.12379406  0.86680331  0.33887783  1
  N  N1147  1  0.03324818  0.93037980  0.32684225  1
  Zn  Zn1148  1  0.05558821  0.87297860  0.26413957  1
  H  H1149  1  0.15402232  0.80549224  0.44538097  1
  N  N1150  1  0.17308860  0.81978960  0.45749607  1
  H  H1151  1  0.20991994  0.85537975  0.42948660  1
  N  N1152  1  0.23119453  0.87757680  0.42747725  1
  H  H1153  1  0.22199598  0.90425162  0.41447632  1
  C  C1154  1  0.19034899  0.78596381  0.47622028  1
  N  N1155  1  0.24191321  0.94801367  0.48000474  1
  N  N1156  1  0.01902641  0.78273009  0.48522510  1
  H  H1157  1  0.08219230  0.78852722  0.47015120  1
  H  H1158  1  0.02437798  0.94893923  0.34401267  1
  N  N1159  1  0.17759441  0.95554573  0.37222664  1
  H  H1160  1  0.16770485  0.85190358  0.46745001  1
  H  H1161  1  0.23503705  0.95605391  0.27685478  1
  C  C1162  1  0.21319878  0.98132966  0.28317066  1
  N  N1163  1  0.03196070  0.93531091  0.25347973  1
  N  N1164  1  0.20430158  0.96924482  0.38522684  1
  C  C1165  1  0.24421224  0.99293520  0.33181585  1
  N  N1166  1  0.21015370  0.79639833  0.49918375  1
  Zn  Zn1167  1  0.34980115  0.92158793  0.25937076  1
  H  H1168  1  0.31127152  0.79977898  0.38964760  1
  H  H1169  1  0.34243102  0.81417749  0.31020676  1
  C  C1170  1  0.41048348  0.75764928  0.36834448  1
  C  C1171  1  0.37527148  0.96283328  0.46423383  1
  Zn  Zn1172  1  0.34273225  0.88048924  0.43361424  1
  C  C1173  1  0.38103775  0.91690875  0.38072305  1
  N  N1174  1  0.29238038  0.96986868  0.29209283  1
  H  H1175  1  0.41714913  0.82893675  0.35589771  1
  N  N1176  1  0.28343430  0.76242376  0.48179438  1
  C  C1177  1  0.37698279  0.75478903  0.35097310  1
  O  O1178  1  0.46053722  0.95302972  0.46378596  1
  N  N1179  1  0.46052152  0.90166992  0.44256726  1
  H  H1180  1  0.27917636  0.83315271  0.40347301  1
  C  C1181  1  0.42958142  0.79983783  0.36934696  1
  H  H1182  1  0.42669451  0.95576488  0.38783108  1
  N  N1183  1  0.31117633  0.93581198  0.28932417  1
  N  N1184  1  0.33322930  0.80318922  0.28791053  1
  N  N1185  1  0.41430671  0.99979652  0.28745160  1
  O  O1186  1  0.46270612  0.88575750  0.36800241  1
  N  N1187  1  0.34789665  0.88221693  0.33928382  1
  Zn  Zn1188  1  0.30474567  0.78341592  0.43983977  1
  N  N1189  1  0.31914687  0.99598249  0.35854264  1
  N  N1190  1  0.40437899  0.93245748  0.26282394  1
  N  N1191  1  0.25649630  0.76788082  0.37589584  1
  C  C1192  1  0.47386407  0.76936696  0.40149133  1
  N  N1193  1  0.29121343  0.90212648  0.44266329  1
  O  O1194  1  0.26479795  0.95882100  0.32396044  1
  N  N1195  1  0.44146268  0.87337085  0.45399881  1
  N  N1196  1  0.38640847  0.94126602  0.48847817  1
  H  H1197  1  0.42195100  0.92164249  0.41494671  1
  N  N1198  1  0.40646644  0.81110760  0.47146479  1
  N  N1199  1  0.37661029  0.92399207  0.35178102  1
  Zn  Zn1200  1  0.40414120  0.97520316  0.32758904  1
  Zn  Zn1201  1  0.42581457  0.87199020  0.27255442  1
  N  N1202  1  0.40786498  0.93848705  0.39940949  1
  Zn  Zn1203  1  0.29457473  0.96433072  0.46154045  1
  H  H1204  1  0.32642599  0.76772545  0.29032833  1
  C  C1205  1  0.38230154  0.79558908  0.45274069  1
  C  C1206  1  0.42072780  0.97282412  0.26450024  1
  C  C1207  1  0.26440930  0.87304771  0.44279879  1
  N  N1208  1  0.35192165  0.81615810  0.44902881  1
  N  N1209  1  0.45231213  0.87409779  0.33049266  1
  N  N1210  1  0.44107578  0.76930730  0.48109244  1
  C  C1211  1  0.35836508  0.81522783  0.26601095  1
  N  N1212  1  0.37445982  0.85589843  0.26128270  1
  O  O1213  1  0.36912971  0.78760249  0.33475793  1
  N  N1214  1  0.28720669  0.79898390  0.39952242  1
  N  N1215  1  0.34689880  0.94380639  0.45149047  1
  N  N1216  1  0.33812081  0.85989781  0.36107365  1
  N  N1217  1  0.27240869  0.83385969  0.45737269  1
  C  C1218  1  0.46144169  0.80610772  0.38404434  1
  N  N1219  1  0.35630833  0.88878583  0.39187430  1
  H  H1220  1  0.32059401  0.96461090  0.34950965  1
  C  C1221  1  0.47486773  0.98701642  0.44914017  1
  N  N1222  1  0.43421416  0.90311469  0.31669998  1
  C  C1223  1  0.48022370  0.85324949  0.38092199  1
  Zn  Zn1224  1  0.40433744  0.87682142  0.49013966  1
  N  N1225  1  0.46490386  0.82523851  0.25116159  1
  Zn  Zn1226  1  0.04238991  0.63468762  0.55319750  1
  H  H1227  1  0.14222725  0.69008297  0.53513820  1
  N  N1228  1  0.05814937  0.69612357  0.56965850  1
  N  N1229  1  0.12340972  0.67469310  0.54691400  1
  C  C1230  1  0.07031961  0.54544199  0.53046783  1
  N  N1231  1  0.03803820  0.52909692  0.53057641  1
  H  H1232  1  0.10737900  0.65895026  0.56176860  1
  N  N1233  1  0.07747667  0.58849989  0.53741096  1
  O  O1234  1  0.05109045  0.62792573  0.66184591  1
  C  C1235  1  0.06854393  0.59303210  0.67176226  1
  C  C1236  1  0.05508010  0.54193016  0.67046392  1
  N  N1237  1  0.19125617  0.69484270  0.52017108  1
  Zn  Zn1238  1  0.10586191  0.63395293  0.51098483  1
  C  C1239  1  0.02125731  0.53761248  0.65756317  1
  O  O1240  1  0.09742042  0.59561413  0.68352218  1
  N  N1241  1  0.01487369  0.63362179  0.51274406  1
  C  C1242  1  0.03618628  0.72350630  0.58400024  1
  Zn  Zn1243  1  0.08693299  0.72570528  0.53610997  1
  N  N1244  1  0.18568786  0.72588956  0.53778770  1
  N  N1245  1  0.17221323  0.58165463  0.51972927  1
  O  O1246  1  0.22869349  0.52130956  0.52171467  1
  N  N1247  1  0.09704678  0.51895585  0.51457336  1
  H  H1248  1  0.03613302  0.68846464  0.62814759  1
  N  N1249  1  0.12527944  0.71468317  0.73217158  1
  H  H1250  1  0.12472312  0.52748984  0.51741260  1
  N  N1251  1  0.00977909  0.61629193  0.58608698  1
  H  H1252  1  0.10225598  0.51506692  0.68948023  1
  N  N1253  1  0.02533606  0.71457182  0.61396225  1
  O  O1254  1  0.24430341  0.55124795  0.70085933  1
  H  H1255  1  0.19182762  0.55480995  0.51592658  1
  C  C1256  1  0.07580917  0.50628279  0.68119290  1
  H  H1257  1  0.24225377  0.61736993  0.72895387  1
  N  N1258  1  0.13716748  0.74699681  0.71757729  1
  H  H1259  1  0.00575423  0.56785732  0.64825498  1
  H  H1260  1  0.00894334  0.73667427  0.74629299  1
  N  N1261  1  0.00625122  0.63013408  0.67867709  1
  H  H1262  1  0.01575173  0.74029080  0.62775204  1
  H  H1263  1  0.05404000  0.72913537  0.74171912  1
  H  H1264  1  0.43264015  0.50275453  0.71986240  1
  C  C1265  1  0.25981710  0.53279395  0.72033406  1
  O  O1266  1  0.26450824  0.69391063  0.61369094  1
  C  C1267  1  0.34952002  0.52850518  0.66268571  1
  O  O1268  1  0.38579158  0.50104485  0.55847111  1
  C  C1269  1  0.26026717  0.60524406  0.74669977  1
  O  O1270  1  0.37243291  0.51737349  0.68024836  1
  H  H1271  1  0.30119436  0.70646811  0.65391995  1
  O  O1272  1  0.34951892  0.68488569  0.69906302  1
  O  O1273  1  0.45150498  0.65941567  0.62658833  1
  C  C1274  1  0.31460027  0.67276403  0.65433698  1
  C  C1275  1  0.33843657  0.65996300  0.67859329  1
  C  C1276  1  0.30587302  0.63957633  0.63336926  1
  C  C1277  1  0.28014835  0.65848824  0.60924089  1
  C  C1278  1  0.34939031  0.61140639  0.67970529  1
  N  N1279  1  0.27208242  0.67575296  0.55440531  1
  O  O1280  1  0.28017938  0.63693738  0.58444695  1
  C  C1281  1  0.31609619  0.59284788  0.63491805  1
  H  H1282  1  0.31071301  0.56860883  0.61666261  1
  C  C1283  1  0.33726013  0.58001271  0.65929579  1
  N  N1284  1  0.28200699  0.65648775  0.53137108  1
  H  H1285  1  0.34727500  0.67229401  0.60431122  1
  C  C1286  1  0.36813877  0.66681397  0.58796079  1
  C  C1287  1  0.37640653  0.62068763  0.57726855  1
  O  O1288  1  0.36306860  0.58321786  0.58723004  1
  C  C1289  1  0.40993759  0.70659584  0.55420229  1
  C  C1290  1  0.40242444  0.62302679  0.55335926  1
  C  C1291  1  0.41682599  0.66253329  0.54338131  1
  N  N1292  1  0.45399392  0.54489620  0.63187738  1
  H  H1293  1  0.41350367  0.59012836  0.54447599  1
  H  H1294  1  0.37011263  0.59870858  0.69530872  1
  O  O1295  1  0.46146952  0.58975750  0.60623357  1
  C  C1296  1  0.38486997  0.70523935  0.57789327  1
  C  C1297  1  0.47009606  0.62657860  0.61970019  1
  O  O1298  1  0.44856818  0.55691179  0.71858730  1
  C  C1299  1  0.47287124  0.58606894  0.71594234  1
  C  C1300  1  0.37660286  0.53224374  0.56930158  1
  C  C1301  1  0.27506666  0.56038457  0.74632409  1
  H  H1302  1  0.33772043  0.70409417  0.52572563  1
  H  H1303  1  0.49899049  0.70279063  0.64905678  1
  N  N1304  1  0.33174835  0.72673367  0.50800206  1
  O  O1305  1  0.46180960  0.69478418  0.50697008  1
  C  C1306  1  0.44790270  0.65958603  0.51978729  1
  N  N1307  1  0.45428701  0.50730739  0.62047454  1
  C  C1308  1  0.29965174  0.51473032  0.50773620  1
  H  H1309  1  0.28915734  0.55083580  0.50619667  1
  O  O1310  1  0.45789223  0.62065731  0.51545439  1
  O  O1311  1  0.46956155  0.62663012  0.72163420  1
  H  H1312  1  0.42487301  0.73794536  0.54733159  1
  O  O1313  1  0.35890341  0.74528871  0.61894310  1
  C  C1314  1  0.37487808  0.74973260  0.59425939  1
  N  N1315  1  0.03373857  0.75082152  0.53025966  1
  C  C1316  1  0.00824818  0.87691464  0.70486466  1
  N  N1317  1  0.02229286  0.96437358  0.51695298  1
  N  N1318  1  0.02332982  0.75812886  0.56769889  1
  H  H1319  1  0.13111857  0.77828915  0.51985925  1
  H  H1320  1  0.09118315  0.81551226  0.66289253  1
  N  N1321  1  0.21573422  0.80191869  0.70366039  1
  N  N1322  1  0.04967915  0.97960129  0.56358818  1
  H  H1323  1  0.12007230  0.80195675  0.69051581  1
  H  H1324  1  0.11143521  0.93941551  0.58456008  1
  H  H1325  1  0.08300141  0.94566592  0.61318031  1
  N  N1326  1  0.08644439  0.92859988  0.59283198  1
  N  N1327  1  0.11192261  0.78859644  0.53384620  1
  N  N1328  1  0.05811438  0.85084401  0.63307712  1
  Zn  Zn1329  1  0.04220750  0.82903056  0.57099742  1
  C  C1330  1  0.13227491  0.86600593  0.67654829  1
  N  N1331  1  0.12925035  0.89081354  0.65205655  1
  C  C1332  1  0.05481901  0.93453545  0.56834343  1
  N  N1333  1  0.09731190  0.82318648  0.58050792  1
  Zn  Zn1334  1  0.10703946  0.87092449  0.61132221  1
  N  N1335  1  0.04295191  0.89752671  0.55595028  1
  C  C1336  1  0.12006037  0.81197136  0.56021473  1
  N  N1337  1  0.10731777  0.82896515  0.68023844  1
  N  N1338  1  0.03502634  0.83090627  0.61884415  1
  N  N1339  1  0.02747470  0.82837262  0.52861918  1
  N  N1340  1  0.15649680  0.88148902  0.69530489  1
  N  N1341  1  0.16005435  0.93814437  0.65693960  1
  N  N1342  1  0.17584432  0.93165828  0.68023238  1
  N  N1343  1  0.15407758  0.82275181  0.56436183  1
  N  N1344  1  0.16122666  0.84916518  0.59859574  1
  H  H1345  1  0.20783033  0.87704019  0.66716089  1
  C  C1346  1  0.19062447  0.84580365  0.61188577  1
  N  N1347  1  0.19309149  0.96136141  0.56979069  1
  N  N1348  1  0.20239351  0.91260822  0.54490060  1
  N  N1349  1  0.22170211  0.84144332  0.62045025  1
  Zn  Zn1350  1  0.19985616  0.79687238  0.54623199  1
  N  N1351  1  0.16216515  0.96829810  0.56634879  1
  C  C1352  1  0.22950262  0.89322084  0.54403895  1
  Zn  Zn1353  1  0.03239866  0.89092808  0.50895835  1
  C  C1354  1  0.03234710  0.95677480  0.71319671  1
  Zn  Zn1355  1  0.18227492  0.84425278  0.73078244  1
  N  N1356  1  0.22735953  0.85523100  0.65905784  1
  C  C1357  1  0.02607508  0.78862800  0.51429093  1
  N  N1358  1  0.23350767  0.85023530  0.53464790  1
  O  O1359  1  0.05021917  0.93891805  0.73235103  1
  H  H1360  1  0.02463300  0.86637498  0.72454269  1
  O  O1361  1  0.00102115  0.77754551  0.71960030  1
  N  N1362  1  0.14491480  0.79288063  0.74263404  1
  N  N1363  1  0.24277888  0.77878196  0.58038856  1
  N  N1364  1  0.23454064  0.80406556  0.68108305  1
  N  N1365  1  0.02490278  0.99836099  0.53289660  1
  H  H1366  1  0.21436686  0.99813269  0.51490752  1
  C  C1367  1  0.00802013  0.92279515  0.69652830  1
  N  N1368  1  0.24942249  0.79398023  0.60454279  1
  H  H1369  1  0.24871260  0.87667585  0.66127969  1
  O  O1370  1  0.27604341  0.94429287  0.61132436  1
  N  N1371  1  0.30174500  0.82156114  0.53246298  1
  Zn  Zn1372  1  0.39727560  0.97216026  0.53050579  1
  Zn  Zn1373  1  0.26195490  0.82248803  0.50071151  1
  O  O1374  1  0.38791161  0.78596467  0.58457734  1
  N  N1375  1  0.34579276  0.84347163  0.53711466  1
  C  C1376  1  0.49866769  0.98072030  0.66825828  1
  H  H1377  1  0.47893841  0.99006818  0.51560095  1
  C  C1378  1  0.46261064  0.90972853  0.52907314  1
  O  O1379  1  0.48345332  0.89693912  0.70096229  1
  O  O1380  1  0.33583152  0.94816475  0.61419158  1
  N  N1381  1  0.38060184  0.95938416  0.57224785  1
  N  N1382  1  0.34954147  0.96907419  0.57772838  1
  H  H1383  1  0.29997673  0.78613312  0.53408222  1
  H  H1384  1  0.26504710  0.90401004  0.57892244  1
  N  N1385  1  0.26303612  0.91316960  0.55658731  1
  H  H1386  1  0.26183920  0.94772519  0.55686027  1
  N  N1387  1  0.35291473  0.85641416  0.51218583  1
  H  H1388  1  0.48701390  0.95019997  0.65700207  1
  N  N1389  1  0.49177798  0.89501451  0.52875025  1
  O  O1390  1  0.30015826  0.92657573  0.74330230  1
  O  O1391  1  0.47818746  0.98642286  0.61035356  1
  N  N1392  1  0.43102492  0.91747465  0.52129931  1
  H  H1393  1  0.28691121  0.83666844  0.55012252  1
  C  C1394  1  0.30412211  0.96056492  0.62111074  1
  H  H1395  1  0.34881668  0.75447589  0.50866480  1
  N  N1396  1  0.31401369  0.99781559  0.50201491  1
  N  N1397  1  0.05893194  0.66443257  0.78748242  1
  C  C1398  1  0.15557444  0.62030781  0.81178543  1
  N  N1399  1  0.15125880  0.66308457  0.81570276  1
  Zn  Zn1400  1  0.10316863  0.69458824  0.80498938  1
  N  N1401  1  0.16504399  0.58246696  0.81048675  1
  N  N1402  1  0.18936621  0.69167688  0.82623808  1
  N  N1403  1  0.21002023  0.56810662  0.81666708  1
  H  H1404  1  0.21641598  0.53988714  0.80578293  1
  H  H1405  1  0.22344199  0.59424260  0.80685730  1
  N  N1406  1  0.04536590  0.61750888  0.81004752  1
  C  C1407  1  0.03035298  0.68618979  0.77677345  1
  N  N1408  1  0.07596351  0.73674008  0.83599850  1
  N  N1409  1  0.06505516  0.71498296  0.87172730  1
  N  N1410  1  0.04427727  0.74230001  0.88255258  1
  N  N1411  1  0.22593333  0.56273125  0.85571373  1
  N  N1412  1  0.18732236  0.73403458  0.82434470  1
  N  N1413  1  0.01311092  0.62198066  0.81138428  1
  N  N1414  1  0.03243975  0.72120796  0.75542469  1
  N  N1415  1  0.12631936  0.73467404  0.76932765  1
  H  H1416  1  0.08016466  0.58547505  0.99331484  1
  C  C1417  1  0.04237873  0.53085874  0.99990270  1
  C  C1418  1  0.05274371  0.57787305  0.99833370  1
  O  O1419  1  0.10465830  0.50100690  0.79426381  1
  O  O1420  1  0.07273274  0.66748136  0.99734020  1
  H  H1421  1  0.24925085  0.74711379  0.81839330  1
  N  N1422  1  0.00017067  0.67024854  0.78951916  1
  O  O1423  1  0.09758319  0.50358866  0.98662108  1
  O  O1424  1  0.23041858  0.68885817  0.75113046  1
  C  C1425  1  0.28990843  0.50500632  0.99323538  1
  H  H1426  1  0.37662728  0.51000035  0.83809994  1
  O  O1427  1  0.34994826  0.52002517  0.97856299  1
  N  N1428  1  0.25236548  0.53863784  0.86004753  1
  Zn  Zn1429  1  0.49920056  0.50184560  0.85381172  1
  H  H1430  1  0.49292050  0.67597537  0.89687381  1
  O  O1431  1  0.26525529  0.53440873  0.89702653  1
  C  C1432  1  0.25145628  0.68203604  0.77144699  1
  O  O1433  1  0.25884834  0.70690281  0.79313334  1
  C  C1434  1  0.36029652  0.53747391  0.90991064  1
  C  C1435  1  0.26922821  0.63282159  0.77090939  1
  C  C1436  1  0.29069968  0.61842052  0.79362127  1
  O  O1437  1  0.30119512  0.68713683  0.92951369  1
  H  H1438  1  0.28889784  0.61278607  0.91773263  1
  C  C1439  1  0.33363112  0.68063626  0.92931538  1
  O  O1440  1  0.35624018  0.70869679  0.93632192  1
  H  H1441  1  0.29990243  0.64100500  0.81157177  1
  C  C1442  1  0.42727256  0.55541128  0.92253560  1
  O  O1443  1  0.44812757  0.58552750  0.93015752  1
  H  H1444  1  0.40235797  0.63945391  0.93166884  1
  C  C1445  1  0.37934785  0.61503672  0.92474128  1
  C  C1446  1  0.34426921  0.62860524  0.92257541  1
  N  N1447  1  0.46385834  0.62991024  0.82854757  1
  N  N1448  1  0.45219451  0.59559843  0.84144419  1
  O  O1449  1  0.34142587  0.57418732  0.83628381  1
  C  C1450  1  0.32888750  0.55280851  0.81468790  1
  C  C1451  1  0.30367658  0.57260929  0.79276338  1
  C  C1452  1  0.31646688  0.59921901  0.91501996  1
  C  C1453  1  0.38686585  0.56832503  0.91841702  1
  C  C1454  1  0.32514178  0.55314196  0.90870499  1
  N  N1455  1  0.48697722  0.57188741  0.86258742  1
  C  C1456  1  0.29554510  0.54251725  0.76850980  1
  H  H1457  1  0.40586055  0.51898297  0.86523108  1
  H  H1458  1  0.38095748  0.74323049  0.98690312  1
  O  O1459  1  0.33834853  0.51070671  0.81222350  1
  O  O1460  1  0.44235545  0.74149502  0.96417187  1
  O  O1461  1  0.43536910  0.51778089  0.91181474  1
  C  C1462  1  0.29786646  0.51914226  0.89829850  1
  O  O1463  1  0.43006765  0.70646535  0.88570961  1
  C  C1464  1  0.44438522  0.74439947  0.88967459  1
  H  H1465  1  0.36619494  0.50125011  0.90594278  1
  C  C1466  1  0.48591695  0.74842095  0.89788750  1
  H  H1467  1  0.30724341  0.50743564  0.76517848  1
  H  H1468  1  0.23568006  0.75808935  0.85603340  1
  Zn  Zn1469  1  0.00416533  0.83970718  0.85538686  1
  N  N1470  1  0.22898325  0.75977091  0.83358281  1
  C  C1471  1  0.13615809  0.77799236  0.76883885  1
  H  H1472  1  0.15362079  0.78976947  0.81472871  1
  C  C1473  1  0.06021205  0.77612025  0.83156867  1
  O  O1474  1  0.00663598  0.81556954  0.95532486  1
  N  N1475  1  0.00871652  0.86693785  0.78618752  1
  H  H1476  1  0.05433523  0.83533752  0.79985465  1
  H  H1477  1  0.08348785  0.79543470  0.79238952  1
  N  N1478  1  0.03204856  0.98137329  0.81791053  1
  H  H1479  1  0.04724810  0.96426742  0.83408383  1
  N  N1480  1  0.21826724  0.82543006  0.80164935  1
  N  N1481  1  0.14238888  0.80463301  0.79539904  1
  H  H1482  1  0.15626350  0.83390689  0.79583766  1
  N  N1483  1  0.06051979  0.80153648  0.80382815  1
  N  N1484  1  0.04046199  0.78690173  0.85440086  1
  N  N1485  1  0.08716927  0.93602851  0.88019518  1
  N  N1486  1  0.04604957  0.96708735  0.88248053  1
  H  H1487  1  0.09287064  0.90334049  0.93011883  1
  N  N1488  1  0.07924635  0.89724078  0.87194423  1
  C  C1489  1  0.08460498  0.90240382  0.95357156  1
  C  C1490  1  0.03850128  0.83715648  0.94346749  1
  O  O1491  1  0.04710258  0.83077012  0.91792793  1
  N  N1492  1  0.03312649  0.89675142  0.87039067  1
  C  C1493  1  0.01926055  0.93800222  0.87678463  1
  C  C1494  1  0.05950876  0.87126083  0.96388082  1
  C  C1495  1  0.09615257  0.93775267  0.97283777  1
  N  N1496  1  0.21049503  0.88667729  0.78671709  1
  C  C1497  1  0.11673206  0.97702122  0.95928064  1
  O  O1498  1  0.12072479  0.97638681  0.93230339  1
  O  O1499  1  0.20730307  0.92840416  0.98839044  1
  C  C1500  1  0.04992672  0.86948744  0.99440530  1
  O  O1501  1  0.18033229  0.87439998  0.96222683  1
  C  C1502  1  0.20668093  0.89650291  0.96912682  1
  H  H1503  1  0.21900073  0.84233454  0.92167582  1
  H  H1504  1  0.02350367  0.95345740  0.80328495  1
  O  O1505  1  0.09049082  0.91864509  0.80358157  1
  N  N1506  1  0.19876352  0.89304302  0.76179816  1
  C  C1507  1  0.11220238  0.93979897  0.79668410  1
  H  H1508  1  0.10541324  0.97900368  0.84812224  1
  H  H1509  1  0.14103339  0.99614065  0.83429788  1
  N  N1510  1  0.22885720  0.81898024  0.82660298  1
  C  C1511  1  0.24296028  0.88362011  0.95667187  1
  O  O1512  1  0.18518637  0.99276012  0.77066283  1
  H  H1513  1  0.23482190  0.97227485  0.80704229  1
  C  C1514  1  0.24415426  0.85492669  0.93150496  1
  O  O1515  1  0.24914352  0.79358646  0.88444332  1
  H  H1516  1  0.48112837  0.82288307  0.90323584  1
  C  C1517  1  0.49935050  0.97619689  0.94833841  1
  O  O1518  1  0.32778594  0.98745336  0.84689864  1
  C  C1519  1  0.27309487  0.90341931  0.96959328  1
  C  C1520  1  0.27891181  0.80850610  0.89359190  1
  C  C1521  1  0.33951191  0.89773359  0.97521804  1
  O  O1522  1  0.36774058  0.88657841  0.96402211  1
  O  O1523  1  0.30786037  0.79712498  0.88507533  1
  O  O1524  1  0.42349176  0.97246543  0.79265824  1
  O  O1525  1  0.47469272  0.80382059  0.96708588  1
  O  O1526  1  0.27833189  0.95028600  0.84701361  1
  C  C1527  1  0.44838353  0.77813735  0.97531673  1
  C  C1528  1  0.49957078  0.79256872  0.90257718  1
  H  H1529  1  0.27180800  0.92997424  0.98816338  1
  O  O1530  1  0.33913938  0.92441782  0.99920819  1
  H  H1531  1  0.33540465  0.84043203  0.92786609  1
  C  C1532  1  0.27724578  0.84085078  0.92144346  1
  O  O1533  1  0.47525968  0.96277333  0.96465180  1
  C  C1534  1  0.30884421  0.85422690  0.93556254  1
  H  H1535  1  0.48990826  0.99106475  0.81323363  1
  C  C1536  1  0.29762849  0.97924084  0.83524574  1
  C  C1537  1  0.30492257  0.88518416  0.95923947  1
  O  O1538  1  0.43002700  0.78188477  0.88277079  1
  C  C1539  1  0.42111747  0.79470137  0.99829367  1
  C  C1540  1  0.30397501  0.89571196  0.75567352  1
  C  C1541  1  0.71218816  0.04768671  0.02585392  1
  C  C1542  1  0.70914916  0.08781896  0.04301514  1
  O  O1543  1  0.69328110  0.16519953  0.04532738  1
  C  C1544  1  0.72118786  0.08945990  0.07284020  1
  H  H1545  1  0.71990035  0.12118806  0.08478693  1
  C  C1546  1  0.69669402  0.13280052  0.02957421  1
  C  C1547  1  0.73841135  0.05166808  0.08516898  1
  O  O1548  1  0.74795984  0.10308616  0.12887360  1
  C  C1549  1  0.74505016  0.01211868  0.06794251  1
  C  C1550  1  0.72865628  0.01012500  0.04036201  1
  H  H1551  1  0.70245140  0.04375403  0.00255272  1
  C  C1552  1  0.59221748  0.06143328  0.04004340  1
  O  O1553  1  0.58641876  0.06435599  0.06302561  1
  O  O1554  1  0.62446026  0.19931088  0.24409058  1
  H  H1555  1  0.68369673  0.22906757  0.24734642  1
  C  C1556  1  0.75373037  0.06449114  0.11667088  1
  O  O1557  1  0.76861000  0.03387191  0.13080290  1
  O  O1558  1  0.99025898  0.11420921  0.10048288  1
  H  H1559  1  0.79167825  0.21115021  0.08434117  1
  C  C1560  1  0.78978798  0.22042552  0.13237301  1
  O  O1561  1  0.85851654  0.09612036  0.09126639  1
  H  H1562  1  0.96767301  0.07238250  0.19179958  1
  N  N1563  1  0.95489899  0.07380836  0.17125411  1
  C  C1564  1  0.80006390  0.19639094  0.10570540  1
  C  C1565  1  0.82398993  0.16024887  0.10961790  1
  O  O1566  1  0.93289106  0.13995539  0.02742492  1
  C  C1567  1  0.83655858  0.14553143  0.13745325  1
  N  N1568  1  0.90294852  0.09276036  0.03124654  1
  C  C1569  1  0.82276710  0.16624939  0.16368689  1
  N  N1570  1  0.89666208  0.10925364  0.18396913  1
  C  C1571  1  0.80228163  0.20358390  0.16149269  1
  N  N1572  1  0.91338215  0.05890800  0.04434464  1
  N  N1573  1  0.97168543  0.02336114  0.15134700  1
  O  O1574  1  0.84919362  0.10523628  0.19215250  1
  C  C1575  1  0.83604221  0.13246822  0.08262026  1
  O  O1576  1  0.82470885  0.13361487  0.05784048  1
  N  N1577  1  0.90931294  0.07184403  0.17813258  1
  H  H1578  1  0.96091593  0.10271845  0.15998300  1
  H  H1579  1  0.85516801  0.11592547  0.13759012  1
  C  C1580  1  0.83343206  0.14271016  0.19201328  1
  H  H1581  1  0.79229436  0.21793269  0.18245616  1
  H  H1582  1  0.86381021  0.08103465  0.07220434  1
  O  O1583  1  0.82017926  0.15845025  0.21664848  1
  N  N1584  1  0.87745454  0.01621205  0.04800845  1
  N  N1585  1  0.83148746  0.02833316  0.04579134  1
  H  H1586  1  0.96165780  0.22185993  0.01693189  1
  C  C1587  1  0.91755634  0.17426752  0.01474670  1
  O  O1588  1  0.89255918  0.22920557  0.11421046  1
  H  H1589  1  0.96402503  0.22709738  0.13567989  1
  C  C1590  1  0.93446723  0.21885338  0.01035743  1
  O  O1591  1  0.96049110  0.23545107  0.07344894  1
  O  O1592  1  0.99350013  0.14166595  0.14694792  1
  C  C1593  1  0.99918675  0.01102577  0.15775795  1
  N  N1594  1  0.99495592  0.05266221  0.23640759  1
  H  H1595  1  0.86579786  0.14229570  0.00368780  1
  C  C1596  1  0.88211309  0.17419889  0.00217933  1
  C  C1597  1  0.90539370  0.24805008  0.13594626  1
  H  H1598  1  0.99972072  0.01837402  0.23696566  1
  N  N1599  1  0.85270517  0.16619339  0.24447569  1
  O  O1600  1  0.88788360  0.49490900  0.21589727  1
  O  O1601  1  0.77103296  0.25511149  0.13125964  1
  O  O1602  1  0.83105303  0.30857530  0.19096997  1
  O  O1603  1  0.86776722  0.32983027  0.22580080  1
  C  C1604  1  0.94304087  0.25035745  0.14510542  1
  H  H1605  1  0.93846113  0.31899760  0.20846705  1
  C  C1606  1  0.86097124  0.31400445  0.20127937  1
  H  H1607  1  0.85206297  0.26960904  0.15373487  1
  C  C1608  1  0.88133067  0.27198433  0.15644255  1
  C  C1609  1  0.78787114  0.37077709  0.01032457  1
  C  C1610  1  0.99306465  0.27487206  0.17973918  1
  C  C1611  1  0.92323860  0.39717744  0.09946805  1
  N  N1612  1  0.99301400  0.39232663  0.18410118  1
  C  C1613  1  0.97794106  0.26989881  0.07638683  1
  H  H1614  1  0.90562722  0.28541518  0.07975751  1
  C  C1615  1  0.86319830  0.36113324  0.09760455  1
  C  C1616  1  0.92032442  0.31623180  0.08490063  1
  C  C1617  1  0.98727612  0.46938205  0.20590156  1
  O  O1618  1  0.77618597  0.33069052  0.01369408  1
  O  O1619  1  0.81753294  0.38220876  0.02077562  1
  N  N1620  1  0.97465991  0.41351242  0.16582738  1
  O  O1621  1  0.84980729  0.39914168  0.10467151  1
  C  C1622  1  0.95797455  0.31444651  0.08312167  1
  O  O1623  1  0.97158089  0.30386788  0.00113947  1
  N  N1624  1  0.89357997  0.48636389  0.16184058  1
  C  C1625  1  0.89313193  0.29406284  0.18146484  1
  C  C1626  1  0.96009968  0.39382974  0.09437578  1
  N  N1627  1  0.87270952  0.47560827  0.18119601  1
  H  H1628  1  0.90811435  0.42954356  0.10526922  1
  O  O1629  1  0.96913460  0.47195562  0.10432246  1
  C  C1630  1  0.95206310  0.27445501  0.17084039  1
  C  C1631  1  0.92868216  0.29847195  0.18984928  1
  C  C1632  1  0.90468273  0.35677565  0.09396016  1
  N  N1633  1  0.97477714  0.46967257  0.17850611  1
  O  O1634  1  0.84534136  0.32606968  0.09625376  1
  C  C1635  1  0.98437257  0.43599425  0.09922426  1
  C  C1636  1  0.97900397  0.35365023  0.08699546  1
  H  H1637  1  0.99569992  0.48504431  0.00799911  1
  C  C1638  1  0.86627490  0.49667305  0.23811338  1
  O  O1639  1  0.83483078  0.48761573  0.23561468  1
  O  O1640  1  0.75210308  0.25585905  0.24869046  1
  H  H1641  1  0.80243960  0.46607640  0.00653853  1
  N  N1642  1  0.59148186  0.18908848  0.36261749  1
  N  N1643  1  0.57602699  0.15648503  0.35137896  1
  H  H1644  1  0.57443171  0.12297381  0.36567132  1
  C  C1645  1  0.59401283  0.14185486  0.45853405  1
  H  H1646  1  0.65043195  0.19789296  0.32595173  1
  C  C1647  1  0.66754038  0.22882192  0.33291701  1
  O  O1648  1  0.56139621  0.08349175  0.38521460  1
  C  C1649  1  0.70413497  0.22575938  0.33119427  1
  C  C1650  1  0.56067109  0.13625802  0.47123948  1
  O  O1651  1  0.70426778  0.15242029  0.30607409  1
  O  O1652  1  0.65527113  0.17249308  0.42508275  1
  H  H1653  1  0.61104231  0.11635354  0.44661173  1
  C  C1654  1  0.54767528  0.08566181  0.47766189  1
  O  O1655  1  0.56711722  0.05204255  0.47164235  1
  C  C1656  1  0.60296730  0.18822780  0.45582839  1
  C  C1657  1  0.63728157  0.20406138  0.43993662  1
  C  C1658  1  0.69793088  0.18951112  0.41243556  1
  O  O1659  1  0.72336238  0.20259595  0.40513739  1
  H  H1660  1  0.51589297  0.04818444  0.41013768  1
  O  O1661  1  0.68808336  0.06489294  0.44946819  1
  C  C1662  1  0.58174743  0.05468867  0.39550911  1
  O  O1663  1  0.61391125  0.05441227  0.39263366  1
  C  C1664  1  0.54875511  0.21834534  0.48107044  1
  O  O1665  1  0.59323103  0.23715113  0.33947619  1
  C  C1666  1  0.58339758  0.22512330  0.46547760  1
  O  O1667  1  0.58252554  0.24190822  0.26140931  1
  C  C1668  1  0.53902698  0.16955656  0.48289114  1
  C  C1669  1  0.70104466  0.06882856  0.47361749  1
  C  C1670  1  0.61294588  0.23681793  0.25330130  1
  C  C1671  1  0.74054816  0.05755847  0.47491151  1
  C  C1672  1  0.56590775  0.01303505  0.41340579  1
  N  N1673  1  0.74258163  0.23016912  0.49478853  1
  C  C1674  1  0.72345457  0.18324614  0.31705155  1
  C  C1675  1  0.53033259  0.01836597  0.42083071  1
  H  H1676  1  0.74590049  0.03105038  0.42813345  1
  O  O1677  1  0.64348654  0.24415191  0.44021868  1
  O  O1678  1  0.53271128  0.24884798  0.49497865  1
  O  O1679  1  0.68498805  0.08146756  0.49832529  1
  O  O1680  1  0.52172315  0.07966563  0.49466209  1
  H  H1681  1  0.51434902  0.15749214  0.49395155  1
  O  O1682  1  0.75591798  0.18119776  0.31994749  1
  C  C1683  1  0.75925442  0.03969433  0.45075164  1
  C  C1684  1  0.89662958  0.04457950  0.27769979  1
  O  O1685  1  0.91935627  0.06012940  0.26761283  1
  O  O1686  1  0.80247935  0.01432843  0.40591229  1
  N  N1687  1  0.87942223  0.01561717  0.40529588  1
  C  C1688  1  0.81805904  0.01581308  0.43000291  1
  N  N1689  1  0.78612859  0.15523631  0.43334384  1
  N  N1690  1  0.79469031  0.13979789  0.40924905  1
  H  H1691  1  0.83514726  0.09505299  0.36631649  1
  N  N1692  1  0.83827163  0.12204921  0.35181042  1
  H  H1693  1  0.83055675  0.10865333  0.33114645  1
  N  N1694  1  0.82519455  0.17866701  0.38991449  1
  C  C1695  1  0.83223625  0.16806411  0.36134008  1
  N  N1696  1  0.84012653  0.18501007  0.26616494  1
  O  O1697  1  0.96373852  0.11056729  0.36789843  1
  C  C1698  1  0.94038143  0.11290141  0.38743309  1
  O  O1699  1  0.90824542  0.11953100  0.38245627  1
  H  H1700  1  0.94300141  0.11044120  0.32955183  1
  C  C1701  1  0.95552113  0.10646475  0.41891926  1
  N  N1702  1  0.96461787  0.17596537  0.28947643  1
  N  N1703  1  0.92385154  0.13300239  0.32203947  1
  C  C1704  1  0.93442410  0.17202420  0.30491228  1
  Zn  Zn1705  1  0.86097902  0.20800229  0.30688566  1
  N  N1706  1  0.83923864  0.20416584  0.34428916  1
  N  N1707  1  0.91398267  0.20989988  0.30541916  1
  H  H1708  1  0.90300748  0.13296481  0.33751843  1
  C  C1709  1  0.93289643  0.11272721  0.44328659  1
  H  H1710  1  0.90384051  0.12118800  0.44026408  1
  N  N1711  1  0.79605820  0.21466074  0.43935723  1
  C  C1712  1  0.94709495  0.10525050  0.47144261  1
  H  H1713  1  0.86973886  0.21723245  0.42284794  1
  C  C1714  1  0.98207040  0.09005570  0.47653185  1
  C  C1715  1  0.79594988  0.03453156  0.45464141  1
  O  O1716  1  0.95253335  0.22688938  0.45836930  1
  H  H1717  1  0.98639270  0.22950756  0.31829992  1
  N  N1718  1  0.81115879  0.23300667  0.39229160  1
  N  N1719  1  0.91086328  0.00548592  0.40980037  1
  C  C1720  1  0.99138560  0.09422870  0.42267675  1
  N  N1721  1  0.94589962  0.23789925  0.25673637  1
  Zn  Zn1722  1  0.79288744  0.23146847  0.48469447  1
  N  N1723  1  0.89072342  0.23838100  0.42585319  1
  C  C1724  1  0.96814106  0.24726216  0.47824562  1
  O  O1725  1  0.85057858  0.00244310  0.43462508  1
  C  C1726  1  0.81441852  0.04337989  0.48147165  1
  H  H1727  1  0.84351995  0.03842586  0.48273049  1
  C  C1728  1  0.79585294  0.24279749  0.41745491  1
  H  H1729  1  0.99154324  0.08205099  0.49959111  1
  O  O1730  1  0.89100817  0.12606410  0.49436188  1
  C  C1731  1  0.92265885  0.11547675  0.49904189  1
  H  H1732  1  0.97478748  0.05909713  0.25226244  1
  H  H1733  1  0.88976960  0.24653219  0.44833238  1
  N  N1734  1  0.95839991  0.19973274  0.25390282  1
  C  C1735  1  0.72585679  0.26160358  0.34106407  1
  C  C1736  1  0.65249854  0.26808492  0.34577492  1
  C  C1737  1  0.61199415  0.27063674  0.34959852  1
  C  C1738  1  0.64192680  0.27471667  0.26382393  1
  C  C1739  1  0.67628451  0.26274603  0.25784743  1
  H  H1740  1  0.60420249  0.32413987  0.28201722  1
  C  C1741  1  0.63193516  0.31581977  0.27894575  1
  O  O1742  1  0.60128677  0.30312670  0.36293017  1
  H  H1743  1  0.59334030  0.26073746  0.46384585  1
  N  N1744  1  0.71697158  0.28257092  0.45882766  1
  H  H1745  1  0.69386953  0.29783389  0.44955721  1
  C  C1746  1  0.67306720  0.30568920  0.35597635  1
  H  H1747  1  0.66073447  0.33994044  0.36482796  1
  N  N1748  1  0.64479586  0.40690202  0.46918778  1
  O  O1749  1  0.67346295  0.45478673  0.47014086  1
  N  N1750  1  0.68088240  0.39478663  0.42254535  1
  N  N1751  1  0.69412027  0.36119812  0.41014962  1
  N  N1752  1  0.64563576  0.38065117  0.44857606  1
  C  C1753  1  0.70967330  0.29947620  0.35473139  1
  O  O1754  1  0.72201779  0.37638436  0.38053076  1
  C  C1755  1  0.69362637  0.33723424  0.28194820  1
  H  H1756  1  0.71545736  0.36048660  0.28967048  1
  C  C1757  1  0.64310282  0.39170032  0.30595484  1
  O  O1758  1  0.66492669  0.42038018  0.31619970  1
  O  O1759  1  0.61032029  0.39939220  0.30639173  1
  C  C1760  1  0.65780349  0.34663376  0.28796711  1
  C  C1761  1  0.73298535  0.33938845  0.36630174  1
  C  C1762  1  0.70076023  0.29696231  0.26649050  1
  H  H1763  1  0.73304117  0.26915637  0.44234025  1
  C  C1764  1  0.71715242  0.25847842  0.48686167  1
  C  C1765  1  0.67490434  0.46935564  0.49791597  1
  H  H1766  1  0.73909148  0.47976324  0.46417088  1
  C  C1767  1  0.74083709  0.48775523  0.48810132  1
  O  O1768  1  0.51104330  0.40464423  0.25324652  1
  C  C1769  1  0.74187031  0.29087262  0.26211531  1
  C  C1770  1  0.99810417  0.27878575  0.46714739  1
  N  N1771  1  0.94718927  0.40701497  0.25384565  1
  H  H1772  1  0.80815950  0.41630060  0.40568593  1
  N  N1773  1  0.93479535  0.45427022  0.37039608  1
  H  H1774  1  0.75545914  0.26156166  0.33896448  1
  Zn  Zn1775  1  0.96671481  0.47145372  0.40769458  1
  N  N1776  1  0.95052251  0.32995748  0.27358579  1
  H  H1777  1  0.99458249  0.26241315  0.41902743  1
  H  H1778  1  0.89870179  0.29457038  0.48407256  1
  N  N1779  1  0.96759367  0.40599836  0.42555824  1
  N  N1780  1  0.99840704  0.25449151  0.33099618  1
  N  N1781  1  0.87612253  0.48734669  0.48121027  1
  H  H1782  1  0.78781105  0.38404916  0.37422895  1
  N  N1783  1  0.78789281  0.35010572  0.47908099  1
  H  H1784  1  0.84959126  0.35165147  0.26097896  1
  H  H1785  1  0.81027351  0.32310221  0.26773338  1
  C  C1786  1  0.84464152  0.30858128  0.47710395  1
  N  N1787  1  0.88708931  0.28104989  0.38092359  1
  H  H1788  1  0.79641416  0.30568903  0.44006274  1
  H  H1789  1  0.98713698  0.41129967  0.49801067  1
  N  N1790  1  0.88883708  0.31139969  0.30637892  1
  C  C1791  1  0.96599791  0.40038722  0.45432235  1
  O  O1792  1  0.76359896  0.33536742  0.35922959  1
  O  O1793  1  0.76295469  0.31904118  0.27251912  1
  N  N1794  1  0.99258091  0.41617811  0.47557109  1
  N  N1795  1  0.98825839  0.38511497  0.26221375  1
  C  C1796  1  0.87442102  0.46448047  0.45987558  1
  N  N1797  1  0.93986368  0.37751010  0.36096326  1
  N  N1798  1  0.78825105  0.29282412  0.41977531  1
  N  N1799  1  0.80969409  0.39349479  0.38772300  1
  H  H1800  1  0.79453870  0.31706463  0.40375660  1
  Zn  Zn1801  1  0.84007716  0.27427732  0.35858669  1
  N  N1802  1  0.85015416  0.34563285  0.36130730  1
  C  C1803  1  0.85545674  0.30545512  0.29778982  1
  Zn  Zn1804  1  0.93089458  0.27409371  0.29666255  1
  C  C1805  1  0.97607225  0.28308350  0.35069132  1
  Zn  Zn1806  1  0.95852093  0.35096255  0.39727873  1
  N  N1807  1  0.84757938  0.34626853  0.46125176  1
  N  N1808  1  0.96185217  0.42803312  0.32494350  1
  N  N1809  1  0.80760372  0.37659934  0.46556961  1
  N  N1810  1  0.83929841  0.27105616  0.31098631  1
  Zn  Zn1811  1  0.88918769  0.45464160  0.39594406  1
  Zn  Zn1812  1  0.90445485  0.33069521  0.35013130  1
  N  N1813  1  0.94339348  0.28596128  0.33929808  1
  H  H1814  1  0.95739732  0.40560686  0.30747517  1
  N  N1815  1  0.81229554  0.29713753  0.48297912  1
  C  C1816  1  0.98431396  0.34099336  0.27222431  1
  C  C1817  1  0.89802053  0.27895943  0.40834861  1
  H  H1818  1  0.96569006  0.46151993  0.31865523  1
  N  N1819  1  0.98885259  0.30901764  0.37192795  1
  Zn  Zn1820  1  0.89261279  0.36560043  0.43857922  1
  N  N1821  1  0.87437157  0.27812843  0.48331182  1
  N  N1822  1  0.87392327  0.38723143  0.39798828  1
  N  N1823  1  0.83545083  0.32981499  0.27612285  1
  N  N1824  1  0.87874268  0.43840957  0.43956182  1
  C  C1825  1  0.84384336  0.37264753  0.38388500  1
  N  N1826  1  0.92494644  0.37706971  0.25940729  1
  C  C1827  1  0.94244504  0.42114887  0.35259135  1
  N  N1828  1  0.91725575  0.31281462  0.41828339  1
  N  N1829  1  0.93705063  0.37974737  0.46385531  1
  C  C1830  1  0.60434848  0.09157990  0.61030120  1
  N  N1831  1  0.60910583  0.08348823  0.63927775  1
  N  N1832  1  0.55270077  0.10586924  0.55696214  1
  N  N1833  1  0.60693292  0.02424837  0.64548901  1
  N  N1834  1  0.59599076  0.05293224  0.59624000  1
  Zn  Zn1835  1  0.58592375  0.04578127  0.55065826  1
  N  N1836  1  0.60871276  0.13610855  0.59825343  1
  Zn  Zn1837  1  0.63738534  0.12944373  0.66588041  1
  N  N1838  1  0.62209853  0.14053808  0.70940223  1
  H  H1839  1  0.60483604  0.14020582  0.57546953  1
  N  N1840  1  0.66544517  0.21178939  0.62911974  1
  N  N1841  1  0.66782971  0.17430715  0.64026983  1
  N  N1842  1  0.67966105  0.10839591  0.69361226  1
  C  C1843  1  0.71380681  0.11824663  0.69285633  1
  N  N1844  1  0.72616140  0.14290719  0.71476300  1
  N  N1845  1  0.58057138  0.20126989  0.72164909  1
  C  C1846  1  0.61496563  0.18014541  0.72270370  1
  H  H1847  1  0.62007042  0.16562711  0.60872338  1
  N  N1848  1  0.69809396  0.17084197  0.53841812  1
  C  C1849  1  0.69439546  0.13986643  0.55624356  1
  N  N1850  1  0.68677261  0.11331282  0.57395258  1
  N  N1851  1  0.61511721  0.19391963  0.53715134  1
  H  H1852  1  0.72335037  0.10114872  0.64536281  1
  H  H1853  1  0.55896147  0.18581677  0.70902899  1
  Zn  Zn1854  1  0.64955878  0.08825229  0.73009533  1
  O  O1855  1  0.54482321  0.13296985  0.69798810  1
  C  C1856  1  0.54293056  0.09777880  0.71376108  1
  C  C1857  1  0.52605981  0.05330647  0.69897788  1
  N  N1858  1  0.52111013  0.11522307  0.55812790  1
  N  N1859  1  0.52132944  0.17440812  0.56888618  1
  N  N1860  1  0.62895717  0.06985973  0.52597919  1
  N  N1861  1  0.64377687  0.05160185  0.50501674  1
  N  N1862  1  0.51682125  0.21251465  0.67441528  1
  Zn  Zn1863  1  0.66799226  0.22566971  0.53566494  1
  N  N1864  1  0.59341628  0.22329357  0.54428694  1
  O  O1865  1  0.55189654  0.09599358  0.73930786  1
  N  N1866  1  0.73391738  0.11092895  0.66592811  1
  N  N1867  1  0.59958996  0.00745869  0.62106557  1
  H  H1868  1  0.55760520  0.23976292  0.64450177  1
  N  N1869  1  0.63372198  0.01883794  0.72143894  1
  N  N1870  1  0.72617412  0.09659005  0.59390093  1
  H  H1871  1  0.52146784  0.09432753  0.65716290  1
  C  C1872  1  0.51698777  0.06112875  0.66961827  1
  H  H1873  1  0.51064329  0.03441065  0.51349021  1
  C  C1874  1  0.50300125  0.02269105  0.65405574  1
  H  H1875  1  0.52689289  0.01350170  0.74036503  1
  N  N1876  1  0.51117917  0.24042847  0.69378594  1
  H  H1877  1  0.57034793  0.22378528  0.73678330  1
  O  O1878  1  0.62695390  0.24277491  0.63996982  1
  Zn  Zn1879  1  0.69245627  0.18578679  0.74059171  1
  N  N1880  1  0.61371972  0.02172270  0.74380349  1
  N  N1881  1  0.69892432  0.24161701  0.71402160  1
  N  N1882  1  0.74091447  0.00714797  0.72068368  1
  N  N1883  1  0.63810807  0.18931898  0.74380099  1
  H  H1884  1  0.74143291  0.07233679  0.52363548  1
  C  C1885  1  0.52071377  0.01309279  0.71579337  1
  N  N1886  1  0.72737566  0.24916299  0.68395170  1
  Zn  Zn1887  1  0.74835053  0.20262714  0.53637394  1
  N  N1888  1  0.74706535  0.12862956  0.59736783  1
  H  H1889  1  0.77471014  0.01126382  0.65463753  1
  N  N1890  1  0.75118292  0.24505243  0.57062481  1
  C  C1891  1  0.79305333  0.00709455  0.67404205  1
  C  C1892  1  0.75684822  0.06284624  0.50276030  1
  H  H1893  1  0.75200875  0.13700034  0.65911742  1
  O  O1894  1  0.81293144  0.12598183  0.66841766  1
  C  C1895  1  0.81369332  0.08763169  0.67745190  1
  H  H1896  1  0.79615702  0.10505635  0.62815810  1
  N  N1897  1  0.79196809  0.11892386  0.60687269  1
  H  H1898  1  0.80316134  0.09618155  0.59079297  1
  N  N1899  1  0.81835125  0.16882257  0.60194205  1
  N  N1900  1  0.80387317  0.20047635  0.52328445  1
  H  H1901  1  0.85559411  0.09770928  0.57298085  1
  C  C1902  1  0.85344806  0.16129669  0.59943537  1
  N  N1903  1  0.86856327  0.12267376  0.58431087  1
  H  H1904  1  0.89562659  0.12034814  0.58107821  1
  N  N1905  1  0.86540996  0.18983903  0.53399180  1
  N  N1906  1  0.87017735  0.19650360  0.61046562  1
  N  N1907  1  0.91817216  0.19156756  0.61173815  1
  O  O1908  1  0.85782898  0.03909312  0.72946952  1
  C  C1909  1  0.93159841  0.20432450  0.63646459  1
  O  O1910  1  0.93434950  0.12127639  0.52383999  1
  C  C1911  1  0.83073519  0.21072569  0.53929671  1
  N  N1912  1  0.94738954  0.22112575  0.65568373  1
  C  C1913  1  0.81254954  0.04144830  0.68816551  1
  Zn  Zn1914  1  0.79306491  0.22891806  0.59511365  1
  H  H1915  1  0.88557404  0.19573167  0.54955983  1
  H  H1916  1  0.86986082  0.15767297  0.52377127  1
  O  O1917  1  0.78960702  0.08805668  0.55417982  1
  C  C1918  1  0.81057550  0.07760274  0.53409844  1
  C  C1919  1  0.83820130  0.02041240  0.71229887  1
  C  C1920  1  0.79369412  0.05970517  0.50489117  1
  N  N1921  1  0.94091332  0.21651223  0.57944372  1
  O  O1922  1  0.84333976  0.07886718  0.53605143  1
  N  N1923  1  0.82494459  0.24072058  0.56094187  1
  N  N1924  1  0.75913563  0.04678047  0.74662650  1
  C  C1925  1  0.98212822  0.10387823  0.62752968  1
  N  N1926  1  0.91989720  0.24608628  0.57114644  1
  H  H1927  1  0.99653933  0.18918878  0.63635611  1
  Zn  Zn1928  1  0.75759497  0.11784508  0.74888789  1
  N  N1929  1  0.83931236  0.15711904  0.74476703  1
  O  O1930  1  0.96261710  0.23809243  0.50535100  1
  O  O1931  1  0.64368042  0.49103735  0.73314977  1
  O  O1932  1  0.51686165  0.39525306  0.55770894  1
  H  H1933  1  0.73490335  0.27454036  0.62973677  1
  C  C1934  1  0.55687910  0.26705583  0.62786412  1
  N  N1935  1  0.62390146  0.27014563  0.54809424  1
  C  C1936  1  0.51821423  0.31992229  0.60197084  1
  C  C1937  1  0.52349933  0.28183072  0.62012569  1
  C  C1938  1  0.72326982  0.26862241  0.58064957  1
  N  N1939  1  0.69673897  0.27446419  0.56147328  1
  N  N1940  1  0.69232852  0.26850972  0.50641074  1
  C  C1941  1  0.58651454  0.29210265  0.61582682  1
  C  C1942  1  0.62313802  0.28042052  0.62529726  1
  H  H1943  1  0.54344770  0.40496978  0.66369551  1
  N  N1944  1  0.58535653  0.30797545  0.51581255  1
  C  C1945  1  0.61713713  0.31093786  0.53458009  1
  C  C1946  1  0.54802996  0.34212568  0.58992536  1
  C  C1947  1  0.68111245  0.28129936  0.71476955  1
  O  O1948  1  0.65018704  0.30091989  0.61512945  1
  C  C1949  1  0.58308233  0.32874429  0.59549266  1
  H  H1950  1  0.60702542  0.34803691  0.58750669  1
  N  N1951  1  0.59162917  0.44825623  0.61929323  1
  N  N1952  1  0.60390415  0.39838032  0.64305304  1
  N  N1953  1  0.63164689  0.40875707  0.65484777  1
  N  N1954  1  0.63780707  0.34114845  0.53589520  1
  Zn  Zn1955  1  0.69148052  0.32752383  0.53304519  1
  N  N1956  1  0.68672987  0.31069344  0.69172015  1
  Zn  Zn1957  1  0.66595675  0.37689591  0.68403734  1
  N  N1958  1  0.70284384  0.46949793  0.64971774  1
  N  N1959  1  0.70804000  0.41813474  0.66894008  1
  O  O1960  1  0.57399177  0.40027852  0.55861165  1
  N  N1961  1  0.72088355  0.28680763  0.67231579  1
  N  N1962  1  0.51880688  0.39570533  0.65434488  1
  N  N1963  1  0.65721784  0.38397614  0.73173819  1
  C  C1964  1  0.54614771  0.38195691  0.56734414  1
  H  H1965  1  0.69505839  0.30118617  0.61613993  1
  O  O1966  1  0.58107095  0.32670738  0.70080399  1
  N  N1967  1  0.72068194  0.28484207  0.61030353  1
  H  H1968  1  0.56785878  0.27931347  0.52060755  1
  O  O1969  1  0.55234593  0.46044543  0.68773981  1
  N  N1970  1  0.73306007  0.48463215  0.64739465  1
  H  H1971  1  0.56935896  0.33469565  0.51952798  1
  C  C1972  1  0.57938826  0.33282936  0.72415343  1
  N  N1973  1  0.73620228  0.37048233  0.54589053  1
  N  N1974  1  0.71989201  0.39341918  0.52851021  1
  H  H1975  1  0.51638684  0.41429555  0.63415093  1
  H  H1976  1  0.73390113  0.35383165  0.70177138  1
  N  N1977  1  0.65204689  0.28638260  0.73567837  1
  C  C1978  1  0.74247126  0.41303220  0.67703664  1
  H  H1979  1  0.61867656  0.44978979  0.74870562  1
  H  H1980  1  0.64097906  0.31732832  0.74079921  1
  C  C1981  1  0.71315018  0.49761343  0.53749267  1
  N  N1982  1  0.60230940  0.48440305  0.63019546  1
  C  C1983  1  0.55006502  0.49991032  0.69528296  1
  H  H1984  1  0.68759423  0.49573408  0.55047285  1
  O  O1985  1  0.64908618  0.47395732  0.51355852  1
  C  C1986  1  0.71184757  0.48602939  0.50828911  1
  H  H1987  1  0.78952212  0.48027852  0.57252767  1
  N  N1988  1  0.79340699  0.25474536  0.63728602  1
  N  N1989  1  0.75370884  0.37488861  0.69550418  1
  N  N1990  1  0.93011617  0.39491633  0.50278679  1
  N  N1991  1  0.80387876  0.45048955  0.57321618  1
  N  N1992  1  0.92852414  0.31834345  0.64170844  1
  N  N1993  1  0.91383531  0.36274155  0.51341689  1
  N  N1994  1  0.84974535  0.39584525  0.68010716  1
  N  N1995  1  0.82474592  0.48963960  0.73548185  1
  O  O1996  1  0.91287451  0.29321565  0.73424894  1
  N  N1997  1  0.90347854  0.37081982  0.55223796  1
  N  N1998  1  0.90275764  0.48257359  0.62923225  1
  O  O1999  1  0.96614658  0.43560548  0.63950886  1
  C  C2000  1  0.81827576  0.27661156  0.64478041  1
  H  H2001  1  0.97502611  0.28929576  0.67092126  1
  C  C2002  1  0.95775195  0.44093082  0.74579114  1
  C  C2003  1  0.90677211  0.43963690  0.63001083  1
  Zn  Zn2004  1  0.86580073  0.26353198  0.58800224  1
  H  H2005  1  0.89281765  0.45591336  0.57884258  1
  H  H2006  1  0.84438541  0.29911422  0.68225524  1
  N  N2007  1  0.84395695  0.35666940  0.53741542  1
  H  H2008  1  0.91283563  0.42366821  0.71615918  1
  C  C2009  1  0.91235346  0.33160840  0.72397301  1
  H  H2010  1  0.93021906  0.36440936  0.59491895  1
  H  H2011  1  0.98336734  0.27711852  0.63724932  1
  O  O2012  1  0.80206887  0.34404102  0.73329767  1
  N  N2013  1  0.76239478  0.44590469  0.66651804  1
  H  H2014  1  0.79008472  0.42768555  0.56171506  1
  N  N2015  1  0.86304218  0.38822302  0.70482930  1
  C  C2016  1  0.80948448  0.44078425  0.60480523  1
  H  H2017  1  0.94344344  0.32447501  0.57319387  1
  N  N2018  1  0.93795499  0.35845081  0.64065342  1
  O  O2019  1  0.89378494  0.34363678  0.70040954  1
  N  N2020  1  0.90188872  0.47263425  0.56002426  1
  N  N2021  1  0.84004063  0.29701442  0.62525951  1
  N  N2022  1  0.98002326  0.43556866  0.57183734  1
  N  N2023  1  0.96295403  0.27814720  0.65235227  1
  C  C2024  1  0.95680240  0.49302066  0.73934665  1
  N  N2025  1  0.86947433  0.33154956  0.58387976  1
  Zn  Zn2026  1  0.85064029  0.36473587  0.62193932  1
  H  H2027  1  0.82664998  0.32914914  0.53786973  1
  N  N2028  1  0.98056051  0.39446771  0.56587443  1
  H  H2029  1  0.84594588  0.36308354  0.51426039  1
  N  N2030  1  0.82904893  0.27241625  0.67593903  1
  N  N2031  1  0.81829569  0.47011990  0.62624661  1
  C  C2032  1  0.97140059  0.47679805  0.64200387  1
  C  C2033  1  0.93748131  0.36588371  0.73778650  1
  H  H2034  1  0.81395796  0.25546429  0.69233292  1
  N  N2035  1  0.90067610  0.39611936  0.62887768  1
  N  N2036  1  0.93972490  0.36071495  0.57342703  1
  C  C2037  1  0.87290893  0.35194276  0.55844351  1
  H  H2038  1  0.90714876  0.45067514  0.54187876  1
  N  N2039  1  0.80105452  0.46183954  0.74030727  1
  N  N2040  1  0.80893039  0.40020625  0.61148712  1
  C  C2041  1  0.93314661  0.41249183  0.73162254  1
  Zn  Zn2042  1  0.81414529  0.45349996  0.66808165  1
  H  H2043  1  0.77865383  0.36826208  0.70689641  1
  N  N2044  1  0.83409855  0.49605702  0.69497244  1
  H  H2045  1  0.87436772  0.25812301  0.50104466  1
  N  N2046  1  0.60256593  0.06506664  0.80137359  1
  N  N2047  1  0.63053553  0.08550241  0.80458028  1
  N  N2048  1  0.66325142  0.08812348  0.77498632  1
  C  C2049  1  0.69264609  0.10468250  0.78496770  1
  N  N2050  1  0.69758709  0.10408242  0.81725082  1
  N  N2051  1  0.71191183  0.13168948  0.76712144  1
  N  N2052  1  0.66716939  0.11423541  0.88618099  1
  Zn  Zn2053  1  0.68459827  0.12233571  0.93191705  1
  N  N2054  1  0.68374552  0.14959710  0.88683446  1
  N  N2055  1  0.64478255  0.13715680  0.96196516  1
  N  N2056  1  0.70153631  0.23314299  0.78077007  1
  C  C2057  1  0.54628304  0.04234635  0.82645418  1
  O  O2058  1  0.57218829  0.06985040  0.83017641  1
  H  H2059  1  0.70382093  0.13604848  0.82519957  1
  H  H2060  1  0.67568673  0.09298105  0.82930802  1
  H  H2061  1  0.53215422  0.18960215  0.84205899  1
  H  H2062  1  0.53534761  0.12314828  0.80186035  1
  N  N2063  1  0.61449567  0.18968685  0.77903078  1
  C  C2064  1  0.51945475  0.22203997  0.85022023  1
  C  C2065  1  0.51617816  0.05507541  0.80559008  1
  N  N2066  1  0.73575852  0.09926099  0.94558693  1
  N  N2067  1  0.73181458  0.03397821  0.91251362  1
  C  C2068  1  0.51339776  0.10069654  0.79599334  1
  O  O2069  1  0.63003118  0.02611614  0.91904398  1
  N  N2070  1  0.72762324  0.24442414  0.79463483  1
  N  N2071  1  0.51975581  0.01905487  0.87610004  1
  C  C2072  1  0.63518275  0.00440640  0.94159338  1
  N  N2073  1  0.61400373  0.22545973  0.79362553  1
  O  O2074  1  0.58679180  0.21989965  0.82525031  1
  N  N2075  1  0.64832356  0.13975937  0.98874325  1
  H  H2076  1  0.56051922  0.00981948  0.92459143  1
  O  O2077  1  0.66418720  0.00214878  0.95508180  1
  O  O2078  1  0.54246071  0.00663517  0.84095829  1
  O  O2079  1  0.69348342  0.13380174  0.99990398  1
  H  H2080  1  0.67981867  0.01474650  0.77956860  1
  O  O2081  1  0.50776638  0.19277311  0.77439356  1
  N  N2082  1  0.75111810  0.04895220  0.93225859  1
  C  C2083  1  0.76111950  0.12568474  0.95561028  1
  H  H2084  1  0.75284070  0.17516229  0.80497051  1
  N  N2085  1  0.99709005  0.03999206  0.91180663  1
  H  H2086  1  0.84500517  0.00986258  0.85329383  1
  N  N2087  1  0.91426708  0.01187848  0.85812420  1
  N  N2088  1  0.91227839  0.01946942  0.81976987  1
  N  N2089  1  0.76790297  0.16264497  0.96190171  1
  H  H2090  1  0.90211810  0.05986092  0.94442175  1
  H  H2091  1  0.77175028  0.07769154  0.80715322  1
  H  H2092  1  0.78644469  0.02745535  0.81816054  1
  N  N2093  1  0.97773868  0.09419284  0.81648506  1
  C  C2094  1  0.76497876  0.02523991  0.77211112  1
  N  N2095  1  0.77900382  0.04577064  0.79953123  1
  O  O2096  1  0.77515806  0.11100449  0.87417697  1
  H  H2097  1  0.85776023  0.09335650  0.78225356  1
  C  C2098  1  0.82008027  0.06861045  0.91278369  1
  C  C2099  1  0.82228635  0.11619240  0.90802939  1
  N  N2100  1  0.77671724  0.16384581  0.81371591  1
  H  H2101  1  0.78096003  0.17548042  0.83415357  1
  O  O2102  1  0.79193583  0.18147766  0.88717498  1
  C  C2103  1  0.80680051  0.15711488  0.79387155  1
  H  H2104  1  0.85157750  0.18035315  0.90985397  1
  C  C2105  1  0.85110285  0.14326758  0.91555842  1
  C  C2106  1  0.91555293  0.14801093  0.93103345  1
  C  C2107  1  0.88135146  0.12035678  0.92662230  1
  O  O2108  1  0.91301041  0.19057098  0.92663589  1
  N  N2109  1  0.83005574  0.19822918  0.86384535  1
  N  N2110  1  0.84118547  0.16167198  0.79861014  1
  C  C2111  1  0.93828726  0.19104649  0.86427917  1
  N  N2112  1  0.92392873  0.16478076  0.84885531  1
  N  N2113  1  0.88075189  0.07860984  0.83779218  1
  Zn  Zn2114  1  0.86927579  0.15116112  0.83813268  1
  N  N2115  1  0.96220128  0.21129394  0.87976981  1
  H  H2116  1  0.93542333  0.23639042  0.91983140  1
  N  N2117  1  0.87653712  0.06675648  0.78569374  1
  C  C2118  1  0.79150143  0.13745146  0.88966757  1
  C  C2119  1  0.89046925  0.05526535  0.81400248  1
  C  C2120  1  0.87987437  0.07303869  0.93275415  1
  N  N2121  1  0.89708729  0.04415087  0.86831298  1
  O  O2122  1  0.94364637  0.12793992  0.93571519  1
  O  O2123  1  0.81560029  0.16261668  0.97228580  1
  N  N2124  1  0.83926141  0.23892527  0.86553181  1
  C  C2125  1  0.82754455  0.20469811  0.97324316  1
  C  C2126  1  0.84932462  0.04755604  0.92590561  1
  H  H2127  1  0.87526986  0.04515436  0.76689017  1
  N  N2128  1  0.79993209  0.14638145  0.76583400  1
  H  H2129  1  0.79631289  0.04974701  0.90646001  1
  N  N2130  1  0.86219555  0.16400136  0.76349924  1
  H  H2131  1  0.98704533  0.15218526  0.93431423  1
  H  H2132  1  0.82188072  0.00654360  0.88229855  1
  N  N2133  1  0.81968314  0.00197960  0.85994391  1
  N  N2134  1  0.98641687  0.03766261  0.80613028  1
  C  C2135  1  0.86677907  0.20980827  0.98731208  1
  C  C2136  1  0.98689105  0.01004457  0.92658088  1
  O  O2137  1  0.81232397  0.23745298  0.96368998  1
  N  N2138  1  0.99831766  0.10386303  0.83663608  1
  H  H2139  1  0.50142498  0.44364461  0.89300994  1
  C  C2140  1  0.57742991  0.25903367  0.83909848  1
  C  C2141  1  0.53955616  0.26313347  0.85155476  1
  H  H2142  1  0.51884454  0.35135388  0.79944285  1
  O  O2143  1  0.71391531  0.27366444  0.82742912  1
  O  O2144  1  0.65770146  0.44097026  0.94107096  1
  H  H2145  1  0.55574792  0.37729593  0.80104567  1
  O  O2146  1  0.59549819  0.29207721  0.84125410  1
  N  N2147  1  0.57009492  0.39232901  0.87495074  1
  C  C2148  1  0.52842052  0.30617989  0.86139365  1
  H  H2149  1  0.54397716  0.33748888  0.86267695  1
  N  N2150  1  0.62343064  0.41958147  0.82269509  1
  N  N2151  1  0.53239280  0.37307629  0.81309161  1
  C  C2152  1  0.62819719  0.41540080  0.79420821  1
  N  N2153  1  0.52789822  0.44701216  0.83737084  1
  N  N2154  1  0.57245597  0.38907024  0.90174048  1
  N  N2155  1  0.65895979  0.38398575  0.83915151  1
  N  N2156  1  0.67311247  0.36364015  0.81922348  1
  Zn  Zn2157  1  0.58010552  0.45216340  0.84445602  1
  N  N2158  1  0.65165748  0.38454554  0.78611716  1
  N  N2159  1  0.60665286  0.44313033  0.77112231  1
  H  H2160  1  0.61948079  0.42953072  0.92332072  1
  H  H2161  1  0.57778195  0.45699234  0.92968087  1
  N  N2162  1  0.59388965  0.43829490  0.91588631  1
  H  H2163  1  0.60088303  0.47676578  0.77835668  1
  C  C2164  1  0.67616806  0.41300031  0.95509235  1
  C  C2165  1  0.71255551  0.42789381  0.96791115  1
  O  O2166  1  0.66585801  0.37306335  0.95611581  1
  C  C2167  1  0.72213519  0.47535951  0.96928888  1
  C  C2168  1  0.51218814  0.41327866  0.82242824  1
  N  N2169  1  0.56353285  0.41113750  0.76136576  1
  N  N2170  1  0.67751135  0.39314376  0.75165659  1
  H  H2171  1  0.65369423  0.26813101  0.75574475  1
  H  H2172  1  0.73340357  0.34690955  0.80141737  1
  H  H2173  1  0.72266560  0.35826423  0.98266550  1
  N  N2174  1  0.59892833  0.47516667  0.88540270  1
  C  C2175  1  0.73330533  0.39473284  0.98111033  1
  C  C2176  1  0.73691706  0.28663770  0.84582656  1
  H  H2177  1  0.67066090  0.48838314  0.78188740  1
  N  N2178  1  0.51911088  0.48780873  0.93095956  1
  O  O2179  1  0.74530411  0.41795701  0.76907825  1
  H  H2180  1  0.50601706  0.26126746  0.79897315  1
  O  O2181  1  0.69660297  0.48632055  0.83905383  1
  O  O2182  1  0.74769579  0.33210124  0.92911974  1
  C  C2183  1  0.72515742  0.33900953  0.91521772  1
  O  O2184  1  0.74472536  0.26349785  0.86747203  1
  N  N2185  1  0.53952618  0.43276965  0.75010029  1
  O  O2186  1  0.87499699  0.25022423  0.84246549  1
  N  N2187  1  0.94745143  0.25503136  0.90099197  1
  C  C2188  1  0.88539437  0.25235797  0.98259558  1
  C  C2189  1  0.75486850  0.48624938  0.98344794  1
  C  C2190  1  0.80490513  0.38263646  0.85868442  1
  O  O2191  1  0.90941845  0.30735989  0.86186907  1
  O  O2192  1  0.79671341  0.27636595  0.75141622  1
  H  H2193  1  0.93072111  0.27825443  0.88851099  1
  C  C2194  1  0.98447379  0.42451884  0.76419716  1
  H  H2195  1  0.78914588  0.31985800  0.88231523  1
  O  O2196  1  0.92318983  0.33276301  0.98264114  1
  C  C2197  1  0.87174027  0.32183876  0.81900220  1
  C  C2198  1  0.96437167  0.34568914  0.75567033  1
  C  C2199  1  0.75318750  0.35873549  0.81788770  1
  C  C2200  1  0.80984338  0.31355993  0.75158987  1
  C  C2201  1  0.87347017  0.39807768  0.79392068  1
  O  O2202  1  0.84064227  0.37253200  0.90330079  1
  C  C2203  1  0.83446461  0.39560226  0.88128665  1
  H  H2204  1  0.83566122  0.39992722  0.75646522  1
  H  H2205  1  0.96224076  0.30843960  0.76097203  1
  H  H2206  1  0.90830061  0.37182023  0.83053029  1
  C  C2207  1  0.75940853  0.33153020  0.84226531  1
  C  C2208  1  0.84622972  0.30371551  0.79995139  1
  C  C2209  1  0.88578461  0.36462149  0.81596163  1
  O  O2210  1  0.85677419  0.42444435  0.87126527  1
  H  H2211  1  0.83717943  0.26759157  0.79971776  1
  O  O2212  1  0.88442129  0.43672795  0.79144246  1
  O  O2213  1  0.79185459  0.45988109  0.77950144  1
  N  N2214  1  0.85975138  0.47103749  0.89862577  1
  H  H2215  1  0.87444783  0.28235242  0.97137968  1
  C  C2216  1  0.77391155  0.39954822  0.81518772  1
  C  C2217  1  0.76926237  0.42786063  0.78661925  1
  H  H2218  1  0.81542710  0.44740650  0.83260489  1
  C  C2219  1  0.78519920  0.34288862  0.86334611  1
  C  C2220  1  0.98869670  0.37642569  0.76781350  1
  C  C2221  1  0.88628041  0.29269222  0.84525246  1
  C  C2222  1  0.80023121  0.41349815  0.83458279  1
  C  C2223  1  0.84747224  0.37750637  0.77347620  1
  N  N2224  1  0.98676306  0.28648808  0.91232857  1
  C  C2225  1  0.83665406  0.33317237  0.77645057  1
  C  C2226  1  0.76542771  0.40787846  0.99514594  1
  C  C2227  1  0.77821644  0.45221926  0.99538723  1
  C  C2228  1  0.94136145  0.30101155  0.99248390  1
  C  C2229  1  0.91788960  0.25506427  0.99625223  1
  C  C2230  1  0.52213311  0.61404141  0.03686740  1
  C  C2231  1  0.66829812  0.67410986  0.07173992  1
  H  H2232  1  0.68802924  0.64623350  0.06746721  1
  O  O2233  1  0.70683305  0.64760109  0.12009742  1
  O  O2234  1  0.54307211  0.64018736  0.04788415  1
  C  C2235  1  0.64905119  0.68305718  0.01602235  1
  C  C2236  1  0.64679711  0.69540450  0.05040465  1
  C  C2237  1  0.65868740  0.68834534  0.10058737  1
  C  C2238  1  0.68101382  0.66955095  0.12860115  1
  O  O2239  1  0.67506349  0.67564158  0.15451487  1
  C  C2240  1  0.63379235  0.71965037  0.10952825  1
  C  C2241  1  0.61921884  0.72324022  0.05766740  1
  O  O2242  1  0.67079963  0.65540794  0.00610859  1
  H  H2243  1  0.63013137  0.72844976  0.13308021  1
  C  C2244  1  0.61010867  0.74091468  0.08703258  1
  O  O2245  1  0.73233591  0.59386282  0.05011849  1
  O  O2246  1  0.53412953  0.57724368  0.02267593  1
  H  H2247  1  0.51297185  0.73685902  0.11644376  1
  H  H2248  1  0.60389762  0.73175211  0.03687724  1
  H  H2249  1  0.74789827  0.68449295  0.05016342  1
  O  O2250  1  0.63047867  0.70670873  0.00035956  1
  N  N2251  1  0.98668814  0.50486288  0.22763287  1
  C  C2252  1  0.76036035  0.59044418  0.06372239  1
  O  O2253  1  0.77185306  0.55247872  0.07125614  1
  C  C2254  1  0.77000668  0.67729326  0.06506672  1
  C  C2255  1  0.97772050  0.60867250  0.18123302  1
  C  C2256  1  0.78260452  0.63306956  0.07410985  1
  C  C2257  1  0.80973667  0.62847247  0.09430939  1
  H  H2258  1  0.82053487  0.59272394  0.09728349  1
  C  C2259  1  0.82841971  0.66843513  0.10370665  1
  O  O2260  1  0.87410253  0.62668858  0.12646279  1
  C  C2261  1  0.86137241  0.66453991  0.12325606  1
  C  C2262  1  0.81925788  0.71252410  0.09507867  1
  C  C2263  1  0.79054485  0.71494527  0.07425638  1
  N  N2264  1  0.96009623  0.57622013  0.18482545  1
  O  O2265  1  0.87777991  0.70260568  0.12746425  1
  N  N2266  1  0.92493761  0.69956839  0.12107201  1
  N  N2267  1  0.94830503  0.56538469  0.12253201  1
  Zn  Zn2268  1  0.98395151  0.69676374  0.22477311  1
  H  H2269  1  0.94353401  0.62720703  0.06603094  1
  N  N2270  1  0.95792782  0.62396730  0.08490919  1
  H  H2271  1  0.94768598  0.64951639  0.09834541  1
  N  N2272  1  0.95103452  0.56647067  0.09562431  1
  O  O2273  1  0.90636873  0.69581297  0.03803668  1
  C  C2274  1  0.94233356  0.54764568  0.02202838  1
  Zn  Zn2275  1  0.94506162  0.51659061  0.15803765  1
  O  O2276  1  0.93543431  0.50716218  0.02979199  1
  H  H2277  1  0.97644842  0.53566708  0.21866693  1
  C  C2278  1  0.88348630  0.71260416  0.04685274  1
  H  H2279  1  0.91615154  0.69642457  0.24620796  1
  N  N2280  1  0.90349052  0.72428909  0.23451100  1
  H  H2281  1  0.87682973  0.71803731  0.23546211  1
  C  C2282  1  0.99261992  0.60319146  0.01166771  1
  N  N2283  1  0.94060668  0.73340678  0.12989949  1
  N  N2284  1  0.95513731  0.74025683  0.20242928  1
  H  H2285  1  0.83325910  0.74426939  0.10078425  1
  C  C2286  1  0.91985704  0.74415434  0.20833355  1
  H  H2287  1  0.97102488  0.62827078  0.01672824  1
  C  C2288  1  0.98282666  0.55680223  0.01266872  1
  O  O2289  1  0.92076688  0.57747603  0.02226227  1
  O  O2290  1  0.50923740  0.90088231  0.13623082  1
  N  N2291  1  0.50425030  0.78445427  0.07561513  1
  O  O2292  1  0.58421953  0.76820030  0.09171237  1
  N  N2293  1  0.50792107  0.78336884  0.22376586  1
  H  H2294  1  0.70611221  0.75765925  0.01946377  1
  H  H2295  1  0.54577903  0.77599541  0.11262019  1
  N  N2296  1  0.51872797  0.77014216  0.11278572  1
  C  C2297  1  0.51554500  0.79520520  0.16745698  1
  N  N2298  1  0.67818750  0.86688787  0.01480570  1
  O  O2299  1  0.61472699  0.88690492  0.02197021  1
  C  C2300  1  0.73269399  0.96208565  0.02540485  1
  O  O2301  1  0.56041016  0.85799360  0.01709953  1
  N  N2302  1  0.53163640  0.78777443  0.18874620  1
  C  C2303  1  0.58447848  0.88463061  0.00858147  1
  O  O2304  1  0.74503814  0.92962301  0.03993239  1
  N  N2305  1  0.50075665  0.80393283  0.14180951  1
  O  O2306  1  0.72174901  0.95646818  0.00013567  1
  N  N2307  1  0.64943226  0.85397622  0.00654866  1
  N  N2308  1  0.79274315  0.84468817  0.00231557  1
  H  H2309  1  0.75239702  0.87729456  0.03246453  1
  N  N2310  1  0.75223818  0.84557852  0.01896043  1
  H  H2311  1  0.75044028  0.81522952  0.03181056  1
  O  O2312  1  0.75223607  0.76452466  0.04641665  1
  H  H2313  1  0.99038722  0.91501522  0.11560742  1
  N  N2314  1  0.82366992  0.88459490  0.14900749  1
  N  N2315  1  0.86081913  0.78964547  0.20607695  1
  N  N2316  1  0.97246489  0.86247906  0.20375138  1
  C  C2317  1  0.91517830  0.82734127  0.08102124  1
  N  N2318  1  0.85068064  0.95619352  0.06659993  1
  H  H2319  1  0.95506869  0.77469859  0.08306743  1
  H  H2320  1  0.75978549  0.98185284  0.07863954  1
  O  O2321  1  0.97987327  0.98958920  0.07452157  1
  H  H2322  1  0.81137145  0.87986390  0.16958942  1
  N  N2323  1  0.84642852  0.81964290  0.19103773  1
  H  H2324  1  0.91920044  0.93196767  0.08475915  1
  C  C2325  1  0.77924118  0.76044986  0.06192262  1
  Zn  Zn2326  1  0.89013683  0.85692439  0.01797210  1
  N  N2327  1  0.90034209  0.82459138  0.10850948  1
  N  N2328  1  0.91464248  0.96388082  0.07535306  1
  N  N2329  1  0.87028281  0.82848495  0.15871382  1
  N  N2330  1  0.81615738  0.99409802  0.05572916  1
  C  C2331  1  0.85513091  0.85978614  0.14126714  1
  H  H2332  1  0.81672711  0.91179031  0.13606447  1
  C  C2333  1  0.97726372  0.86412912  0.14778785  1
  C  C2334  1  0.88123574  0.97778623  0.06386978  1
  C  C2335  1  0.97982424  0.88792726  0.22789892  1
  Zn  Zn2336  1  0.91829161  0.79242959  0.14726792  1
  N  N2337  1  0.89587759  0.85551139  0.06472962  1
  H  H2338  1  0.95497582  0.80263604  0.05047028  1
  Zn  Zn2339  1  0.98565707  0.79449033  0.19423247  1
  C  C2340  1  0.81552543  0.85182018  0.01923606  1
  O  O2341  1  0.79820834  0.79568613  0.06769860  1
  N  N2342  1  0.84292564  0.86088023  0.03412100  1
  N  N2343  1  0.90328019  0.77335132  0.19153017  1
  N  N2344  1  0.94141586  0.79732427  0.06985713  1
  N  N2345  1  0.77649642  0.83690745  0.09221604  1
  N  N2346  1  0.79234311  0.87301015  0.09436335  1
  H  H2347  1  0.97301845  0.85951015  0.09975071  1
  N  N2348  1  0.87146567  0.86789626  0.11571607  1
  H  H2349  1  0.93623612  0.98746616  0.07658804  1
  Zn  Zn2350  1  0.84598563  0.88703402  0.07754588  1
  N  N2351  1  0.98358814  0.89189140  0.17190299  1
  N  N2352  1  0.96742250  0.82281117  0.15500398  1
  N  N2353  1  0.98232238  0.87903824  0.11849561  1
  N  N2354  1  0.91937955  0.80634611  0.00030082  1
  O  O2355  1  0.50176378  0.69384549  0.42852260  1
  O  O2356  1  0.55917039  0.67225273  0.30573212  1
  C  C2357  1  0.57211697  0.65207679  0.32224003  1
  C  C2358  1  0.99457841  0.51649708  0.46335116  1
  C  C2359  1  0.90957537  0.53862749  0.42879278  1
  C  C2360  1  0.93114988  0.52761832  0.29818179  1
  C  C2361  1  0.90970890  0.54171116  0.32194954  1
  N  N2362  1  0.93266866  0.54737485  0.45003227  1
  H  H2363  1  0.87288156  0.59545939  0.43784938  1
  H  H2364  1  0.86992020  0.57045913  0.40021292  1
  N  N2365  1  0.88013705  0.56756750  0.42312965  1
  H  H2366  1  0.92021764  0.55281296  0.34444708  1
  O  O2367  1  0.85401177  0.55612953  0.36735507  1
  O  O2368  1  0.96142646  0.66188858  0.31960135  1
  N  N2369  1  0.97879636  0.67917481  0.28268748  1
  C  C2370  1  0.87289052  0.53538001  0.31898537  1
  C  C2371  1  0.84415102  0.54373690  0.34285139  1
  N  N2372  1  0.96279533  0.66297605  0.26162995  1
  N  N2373  1  0.97360080  0.52117601  0.43994112  1
  N  N2374  1  0.91995433  0.50683747  0.40918451  1
  O  O2375  1  0.87557876  0.64721384  0.45567668  1
  O  O2376  1  0.93115709  0.66447076  0.46580821  1
  C  C2377  1  0.89938117  0.66976173  0.46937111  1
  H  H2378  1  0.97759462  0.66622688  0.46925857  1
  N  N2379  1  0.97866566  0.52426568  0.48929802  1
  C  C2380  1  0.97148012  0.52923432  0.30427948  1
  C  C2381  1  0.98274567  0.67041667  0.34036674  1
  O  O2382  1  0.98397982  0.54010027  0.32968691  1
  C  C2383  1  0.91850963  0.51330344  0.27077376  1
  H  H2384  1  0.82751238  0.70300313  0.47975225  1
  C  C2385  1  0.88132222  0.50908844  0.26832847  1
  O  O2386  1  0.83622856  0.52087746  0.49166098  1
  Zn  Zn2387  1  0.92320352  0.53471905  0.49348918  1
  C  C2388  1  0.88456886  0.70839328  0.48973378  1
  C  C2389  1  0.84856462  0.71933890  0.49289243  1
  C  C2390  1  0.98470265  0.72134885  0.34615426  1
  H  H2391  1  0.94521174  0.74430842  0.31251131  1
  O  O2392  1  0.81163532  0.53670182  0.33649619  1
  C  C2393  1  0.85895219  0.52037317  0.29219171  1
  H  H2394  1  0.82980585  0.51641704  0.28969444  1
  O  O2395  1  0.80134300  0.50784355  0.45383403  1
  C  C2396  1  0.80540391  0.50859258  0.48041473  1
  N  N2397  1  0.99704300  0.64337556  0.39378872  1
  O  O2398  1  0.83942925  0.66083554  0.26225351  1
  O  O2399  1  0.99059590  0.52107384  0.28277717  1
  C  C2400  1  0.85785816  0.63391547  0.26714192  1
  H  H2401  1  0.93610686  0.50482759  0.25246378  1
  H  H2402  1  0.50034846  0.77135808  0.41302790  1
  O  O2403  1  0.51070505  0.85645118  0.38868705  1
  H  H2404  1  0.61414446  0.97334568  0.42368334  1
  C  C2405  1  0.51305314  0.98649149  0.43927853  1
  H  H2406  1  0.51861260  0.91840491  0.46364338  1
  C  C2407  1  0.53252260  0.94881703  0.45213252  1
  C  C2408  1  0.56842240  0.94757682  0.44560452  1
  C  C2409  1  0.59314096  0.91214307  0.46329311  1
  C  C2410  1  0.58634768  0.97756584  0.42655156  1
  O  O2411  1  0.62590494  0.91286215  0.45956481  1
  O  O2412  1  0.57844385  0.88496467  0.48008950  1
  C  C2413  1  0.96658283  0.75286946  0.32849918  1
  H  H2414  1  0.94414010  0.85238823  0.25913655  1
  O  O2415  1  0.98098529  0.87188388  0.30732428  1
  C  C2416  1  0.97169416  0.84477971  0.47504187  1
  C  C2417  1  0.97876832  0.79875072  0.33067559  1
  C  C2418  1  0.96549294  0.83280362  0.30833110  1
  C  C2419  1  0.92806177  0.91559488  0.36993927  1
  N  N2420  1  0.91975613  0.97690019  0.44499774  1
  O  O2421  1  0.87633785  0.89430658  0.49816707  1
  O  O2422  1  0.94233761  0.81971681  0.29047310  1
  H  H2423  1  0.92715978  0.91425406  0.48792720  1
  N  N2424  1  0.98307587  0.88201397  0.48507919  1
  O  O2425  1  0.95618326  0.91845508  0.37276659  1
  N  N2426  1  0.97612073  0.80538019  0.47204915  1
  N  N2427  1  0.94375359  0.94969603  0.44335837  1
  H  H2428  1  0.96770622  0.89980853  0.27279938  1
  N  N2429  1  0.95214511  0.92649884  0.48031622  1
  N  N2430  1  0.95714833  0.88388462  0.25279035  1
  H  H2431  1  0.95894558  0.95083369  0.49623022  1
  H  H2432  1  0.60903254  0.64609424  0.65843218  1
  C  C2433  1  0.58171917  0.64487196  0.64888433  1
  C  C2434  1  0.56980604  0.60766602  0.63174622  1
  C  C2435  1  0.55305731  0.67360149  0.65478733  1
  C  C2436  1  0.53516440  0.60072098  0.62189713  1
  C  C2437  1  0.59819762  0.57169938  0.62526142  1
  O  O2438  1  0.62870795  0.57969950  0.63359059  1
  H  H2439  1  0.72175869  0.58158353  0.71868206  1
  C  C2440  1  0.57057848  0.57382449  0.69932916  1
  C  C2441  1  0.54060364  0.60056443  0.70426403  1
  C  C2442  1  0.71944164  0.71032287  0.57575657  1
  C  C2443  1  0.58241988  0.53310991  0.69551308  1
  O  O2444  1  0.72306761  0.68307777  0.55559345  1
  C  C2445  1  0.56484968  0.71274142  0.67749536  1
  C  C2446  1  0.72036864  0.56552960  0.74085920  1
  H  H2447  1  0.52639341  0.57061781  0.60788626  1
  O  O2448  1  0.59456526  0.71730516  0.68778589  1
  O  O2449  1  0.66253811  0.54063775  0.70080303  1
  H  H2450  1  0.54157804  0.63835050  0.71000250  1
  H  H2451  1  0.61268879  0.52289754  0.69431053  1
  O  O2452  1  0.59081616  0.53633271  0.60969493  1
  C  C2453  1  0.51697295  0.52261589  0.70185477  1
  C  C2454  1  0.66507646  0.52142294  0.72593111  1
  C  C2455  1  0.74362282  0.71272707  0.60158217  1
  C  C2456  1  0.50896242  0.63345708  0.62843797  1
  O  O2457  1  0.67254952  0.74982481  0.71768138  1
  C  C2458  1  0.51797101  0.67319506  0.64477803  1
  C  C2459  1  0.51103015  0.56850689  0.70761334  1
  C  C2460  1  0.74560539  0.51626175  0.55006760  1
  O  O2461  1  0.74894178  0.52745737  0.57586506  1
  C  C2462  1  0.74069027  0.74349898  0.62379390  1
  C  C2463  1  0.69401580  0.74782315  0.57705986  1
  H  H2464  1  0.67662159  0.74982313  0.55751011  1
  H  H2465  1  0.74987699  0.74585683  0.73932452  1
  O  O2466  1  0.54053180  0.74039987  0.68168992  1
  C  C2467  1  0.69409984  0.53436038  0.74813339  1
  H  H2468  1  0.76038708  0.56342997  0.64966810  1
  O  O2469  1  0.94632437  0.50680988  0.63767921  1
  O  O2470  1  0.77337349  0.62838214  0.72580559  1
  H  H2471  1  0.80192316  0.56008394  0.66009692  1
  H  H2472  1  0.76403768  0.68483498  0.60412374  1
  H  H2473  1  0.76461793  0.65951934  0.55537647  1
  N  N2474  1  0.99260919  0.55070710  0.56525000  1
  C  C2475  1  0.88916559  0.51902927  0.55633904  1
  H  H2476  1  0.93857326  0.57090495  0.60040817  1
  O  O2477  1  0.78458845  0.70657765  0.64993010  1
  Zn  Zn2478  1  0.85557469  0.51735798  0.61996349  1
  N  N2479  1  0.78427593  0.58219769  0.64832418  1
  N  N2480  1  0.78210010  0.60708124  0.59832807  1
  C  C2481  1  0.79737437  0.59109730  0.61807686  1
  N  N2482  1  0.82088471  0.68370142  0.70187549  1
  H  H2483  1  0.84283991  0.56060012  0.73335032  1
  C  C2484  1  0.85094506  0.53408166  0.68872796  1
  N  N2485  1  0.85232790  0.56956273  0.71152432  1
  N  N2486  1  0.79200716  0.65715245  0.54983097  1
  N  N2487  1  0.80946099  0.63239913  0.56797983  1
  H  H2488  1  0.87369217  0.58852111  0.71664010  1
  N  N2489  1  0.83630247  0.58614984  0.61657448  1
  N  N2490  1  0.98784095  0.65844282  0.66536500  1
  C  C2491  1  0.85773790  0.67185557  0.70128684  1
  N  N2492  1  0.87667675  0.66781630  0.72626428  1
  N  N2493  1  0.86241847  0.54664189  0.66264150  1
  N  N2494  1  0.91591548  0.63826728  0.71789141  1
  N  N2495  1  0.94153746  0.65925608  0.54458864  1
  N  N2496  1  0.94608473  0.59058130  0.51403518  1
  N  N2497  1  0.89587099  0.60167166  0.53866687  1
  N  N2498  1  0.89104263  0.54353758  0.53146348  1
  Zn  Zn2499  1  0.93308482  0.65829002  0.67653062  1
  N  N2500  1  0.87489845  0.66697916  0.67714281  1
  Zn  Zn2501  1  0.86762400  0.61291344  0.64743546  1
  Zn  Zn2502  1  0.86585085  0.61257104  0.57655450  1
  N  N2503  1  0.91205771  0.64538037  0.63419525  1
  N  N2504  1  0.89124529  0.67220373  0.59220989  1
  C  C2505  1  0.91340712  0.67333725  0.61086036  1
  C  C2506  1  0.92831773  0.61770780  0.53155855  1
  N  N2507  1  0.87617745  0.54186998  0.57871612  1
  N  N2508  1  0.94035545  0.71092529  0.60603355  1
  H  H2509  1  0.92451501  0.67661942  0.55813257  1
  H  H2510  1  0.79955791  0.53457154  0.53896181  1
  H  H2511  1  0.96526919  0.67767488  0.53981580  1
  H  H2512  1  0.81000476  0.68750015  0.68049429  1
  H  H2513  1  0.80340714  0.66705899  0.71812731  1
  H  H2514  1  0.95737754  0.61097603  0.62134498  1
  N  N2515  1  0.96345313  0.58032948  0.60901875  1
  C  C2516  1  0.77551618  0.52099369  0.52978937  1
  H  H2517  1  0.93915514  0.72058187  0.50754595  1
  H  H2518  1  0.96135070  0.70317742  0.59250298  1
  C  C2519  1  0.91026338  0.72986109  0.50798218  1
  Zn  Zn2520  1  0.99547387  0.56936622  0.51982115  1
  H  H2521  1  0.93064837  0.73860162  0.59612048  1
  C  C2522  1  0.99181605  0.58314623  0.58651078  1
  C  C2523  1  0.93514781  0.64094186  0.74293851  1
  H  H2524  1  0.96408321  0.57677452  0.73948465  1
  O  O2525  1  0.97918071  0.52097512  0.74968333  1
  C  C2526  1  0.76883908  0.74401340  0.64923224  1
  O  O2527  1  0.93567550  0.50405403  0.72009867  1
  C  C2528  1  0.77205193  0.50640441  0.50092744  1
  O  O2529  1  0.77633475  0.74835130  0.50220385  1
  N  N2530  1  0.50502443  0.99896833  0.51952974  1
  C  C2531  1  0.50583293  0.97728729  0.69911124  1
  C  C2532  1  0.50082305  0.92845103  0.71445629  1
  N  N2533  1  0.56162748  0.98446312  0.54166712  1
  N  N2534  1  0.52383238  0.92760148  0.54483176  1
  C  C2535  1  0.52832128  0.97065931  0.53472897  1
  C  C2536  1  0.69462988  0.78137213  0.59816192  1
  N  N2537  1  0.56602371  0.90253677  0.54859909  1
  N  N2538  1  0.58736773  0.93446362  0.54777283  1
  C  C2539  1  0.63373037  0.81657034  0.72727103  1
  C  C2540  1  0.66140126  0.78877946  0.70822867  1
  O  O2541  1  0.67148828  0.80520752  0.68518956  1
  H  H2542  1  0.65070960  0.87950850  0.70165045  1
  C  C2543  1  0.63133301  0.86280275  0.71821393  1
  O  O2544  1  0.62784609  0.95821137  0.70903401  1
  O  O2545  1  0.63968803  0.82008620  0.58131904  1
  C  C2546  1  0.66646857  0.82175610  0.59580614  1
  O  O2547  1  0.67292589  0.85905785  0.61169364  1
  C  C2548  1  0.60523885  0.88885115  0.73220227  1
  C  C2549  1  0.60669257  0.94026065  0.72730862  1
  C  C2550  1  0.71720424  0.78080389  0.62309437  1
  H  H2551  1  0.71819860  0.80342066  0.64262722  1
  N  N2552  1  0.71185622  0.88615751  0.59959357  1
  O  O2553  1  0.51342024  0.91934618  0.73869491  1
  C  C2554  1  0.61255264  0.79277333  0.74808665  1
  N  N2555  1  0.71690075  0.92132252  0.61293601  1
  N  N2556  1  0.73841102  0.97078221  0.73445708  1
  O  O2557  1  0.59283770  0.96584756  0.74655768  1
  C  C2558  1  0.98783013  0.93882957  0.67250771  1
  C  C2559  1  0.85920043  0.91376587  0.51680147  1
  H  H2560  1  0.98443887  0.97556066  0.66849080  1
  N  N2561  1  0.85547704  0.83056781  0.69735292  1
  O  O2562  1  0.76805391  0.77098409  0.67050951  1
  C  C2563  1  0.98879333  0.79488530  0.69660387  1
  C  C2564  1  0.98864804  0.84540716  0.68760373  1
  O  O2565  1  0.79180407  0.79419417  0.53672257  1
  H  H2566  1  0.77986186  0.75479482  0.71057022  1
  N  N2567  1  0.77387437  0.76127070  0.73381931  1
  N  N2568  1  0.91416926  0.95675481  0.73079278  1
  H  H2569  1  0.76464883  0.88983513  0.74425509  1
  H  H2570  1  0.77627720  0.83635889  0.73939882  1
  C  C2571  1  0.96965758  0.90488988  0.65608707  1
  C  C2572  1  0.83975435  0.75339314  0.51354148  1
  C  C2573  1  0.79990009  0.76481935  0.51796124  1
  C  C2574  1  0.92996144  0.78484598  0.54782108  1
  Zn  Zn2575  1  0.85571310  0.82443717  0.74625821  1
  H  H2576  1  0.95245911  0.83184504  0.65035932  1
  N  N2577  1  0.93884283  0.87109173  0.55371708  1
  C  C2578  1  0.94819594  0.91930005  0.62857677  1
  O  O2579  1  0.84475366  0.93378210  0.53562442  1
  C  C2580  1  0.89804986  0.76350016  0.52810653  1
  O  O2581  1  0.80422542  0.88372953  0.69541284  1
  C  C2582  1  0.83049433  0.97184698  0.70810937  1
  N  N2583  1  0.76006677  0.95013637  0.60550180  1
  O  O2584  1  0.95962174  0.76693419  0.54451787  1
  H  H2585  1  0.84446823  0.94398566  0.71920664  1
  N  N2586  1  0.78305190  0.94491901  0.62477138  1
  O  O2587  1  0.92359733  0.81617431  0.56715037  1
  O  O2588  1  0.97298723  0.77277341  0.67675178  1
  C  C2589  1  0.79339609  0.91629992  0.67826327  1
  C  C2590  1  0.96841106  0.85771629  0.66287869  1
  N  N2591  1  0.83512829  0.75959672  0.74582709  1
  H  H2592  1  0.92831622  0.85591545  0.73900394  1
  O  O2593  1  0.77193142  0.91060084  0.65758122  1
  N  N2594  1  0.94496009  0.90033090  0.57272071  1
  N  N2595  1  0.83788107  0.84979570  0.67862254  1
  O  O2596  1  0.93516790  0.88923456  0.61102603  1
  N  N2597  1  0.88128893  0.88608328  0.74033755  1
  C  C2598  1  0.80416435  0.96378107  0.68657297  1
  H  H2599  1  0.85732711  0.80255891  0.55132807  1
  O  O2600  1  0.95017244  0.95990499  0.62389094  1
  C  C2601  1  0.86336100  0.77710792  0.53282567  1
  N  N2602  1  0.93243754  0.98210984  0.74604965  1
  N  N2603  1  0.94581641  0.83112006  0.74459200  1
  Zn  Zn2604  1  0.54667170  0.64628264  0.81092111  1
  N  N2605  1  0.58475332  0.67267452  0.83888210  1
  N  N2606  1  0.56712667  0.58020677  0.79948133  1
  C  C2607  1  0.60960489  0.65349563  0.84678703  1
  C  C2608  1  0.55603164  0.53959924  0.80975353  1
  N  N2609  1  0.52094232  0.53191690  0.81469788  1
  N  N2610  1  0.61940905  0.53343838  0.79987440  1
  N  N2611  1  0.63723398  0.63095112  0.85504526  1
  N  N2612  1  0.62428759  0.54958346  0.89361761  1
  N  N2613  1  0.60997157  0.57171319  0.79128410  1
  N  N2614  1  0.62826297  0.57031859  0.85739927  1
  C  C2615  1  0.61309167  0.51216163  0.89222104  1
  N  N2616  1  0.58182457  0.51108067  0.81750964  1
  H  H2617  1  0.60927522  0.56117881  0.84177681  1
  H  H2618  1  0.65037188  0.55783761  0.84724706  1
  Zn  Zn2619  1  0.67620855  0.66419366  0.87453757  1
  H  H2620  1  0.70374769  0.64313677  0.78184602  1
  H  H2621  1  0.68868775  0.64661232  0.97205854  1
  H  H2622  1  0.70957226  0.60077455  0.95924728  1
  N  N2623  1  0.71747233  0.64427559  0.90079938  1
  N  N2624  1  0.69784431  0.64708558  0.80372863  1
  N  N2625  1  0.69804448  0.63127748  0.95201937  1
  C  C2626  1  0.71870266  0.65571156  0.92891893  1
  C  C2627  1  0.71274016  0.68969060  0.81666370  1
  N  N2628  1  0.72264885  0.72333451  0.79937970  1
  N  N2629  1  0.71205642  0.69643443  0.84609868  1
  N  N2630  1  0.73676509  0.68565625  0.93830193  1
  C  C2631  1  0.72094538  0.52190893  0.79455075  1
  N  N2632  1  0.53126610  0.53936593  0.97415389  1
  N  N2633  1  0.70293823  0.71836527  0.76247584  1
  H  H2634  1  0.55464241  0.62553493  0.88709115  1
  H  H2635  1  0.67042968  0.64525529  0.80430693  1
  H  H2636  1  0.53515430  0.57958984  0.90377511  1
  N  N2637  1  0.54106594  0.59546971  0.88456065  1
  N  N2638  1  0.64787682  0.71568147  0.89370785  1
  H  H2639  1  0.59990370  0.68897346  0.93271506  1
  N  N2640  1  0.62238518  0.70564428  0.94134024  1
  O  O2641  1  0.56172638  0.67428350  0.91136380  1
  H  H2642  1  0.62023154  0.71389339  0.96445009  1
  N  N2643  1  0.52686121  0.57748903  0.98426782  1
  C  C2644  1  0.64819289  0.72624104  0.92217622  1
  C  C2645  1  0.54250695  0.70929982  0.91060359  1
  N  N2646  1  0.53632035  0.67930050  0.76820936  1
  N  N2647  1  0.52029133  0.52877522  0.93625183  1
  H  H2648  1  0.69677117  0.73352593  0.98565380  1
  N  N2649  1  0.53892507  0.71891195  0.75916569  1
  O  O2650  1  0.74637759  0.56762008  0.97683446  1
  C  C2651  1  0.69347268  0.51156450  0.77623444  1
  C  C2652  1  0.51217513  0.60338844  0.86404279  1
  C  C2653  1  0.72343235  0.50469230  0.82872820  1
  C  C2654  1  0.74734335  0.57557398  0.76168434  1
  N  N2655  1  0.50936035  0.63430264  0.84261604  1
  C  C2656  1  0.50521902  0.70912924  0.90236208  1
  H  H2657  1  0.70362272  0.50081865  0.96124764  1
  H  H2658  1  0.50395899  0.56006488  0.81335410  1
  Zn  Zn2659  1  0.75415832  0.67228405  0.87216577  1
  C  C2660  1  0.75082261  0.55107267  0.78843005  1
  O  O2661  1  0.75091402  0.51249152  0.84356639  1
  C  C2662  1  0.76605646  0.53569563  0.98467814  1
  H  H2663  1  0.77256726  0.55846877  0.80497204  1
  O  O2664  1  0.93777549  0.54930043  0.83523184  1
  H  H2665  1  0.78972912  0.63957734  0.92604170  1
  H  H2666  1  0.82863893  0.62430167  0.93229496  1
  N  N2667  1  0.79526089  0.63255092  0.86567112  1
  N  N2668  1  0.81484468  0.61072231  0.83239225  1
  C  C2669  1  0.81509084  0.61765742  0.88759035  1
  N  N2670  1  0.84038531  0.58646064  0.83847596  1
  N  N2671  1  0.84209207  0.59281334  0.87772286  1
  N  N2672  1  0.81458162  0.64126155  0.91664034  1
  N  N2673  1  0.82504572  0.56499098  0.96624090  1
  H  H2674  1  0.85686943  0.65791734  0.85101497  1
  H  H2675  1  0.89668540  0.65848146  0.86234461  1
  N  N2676  1  0.91106102  0.67084405  0.93416355  1
  N  N2677  1  0.92457101  0.71994978  0.82401009  1
  C  C2678  1  0.89488512  0.64257764  0.95164673  1
  N  N2679  1  0.94048026  0.64621098  0.90497635  1
  Zn  Zn2680  1  0.88468487  0.57018250  0.90298799  1
  N  N2681  1  0.93074134  0.61027970  0.89381491  1
  N  N2682  1  0.88074506  0.60471716  0.94345001  1
  Zn  Zn2683  1  0.95497524  0.70438107  0.79096310  1
  N  N2684  1  0.87924319  0.68015750  0.85224970  1
  C  C2685  1  0.89064000  0.70654519  0.82669366  1
  N  N2686  1  0.85298679  0.58260251  0.97377945  1
  N  N2687  1  0.92593436  0.67537948  0.76122268  1
  Zn  Zn2688  1  0.88044981  0.71751145  0.76065123  1
  N  N2689  1  0.86829135  0.72324745  0.80806562  1
  Zn  Zn2690  1  0.92730399  0.73995287  0.94562450  1
  N  N2691  1  0.89006287  0.65995853  0.98244248  1
  N  N2692  1  0.96720516  0.71945216  0.97043686  1
  O  O2693  1  0.79741581  0.54420182  0.99539227  1
  C  C2694  1  0.94391433  0.53228670  0.81495423  1
  H  H2695  1  0.93600902  0.73519986  0.87365600  1
  H  H2696  1  0.97729953  0.61034150  0.76861458  1
  N  N2697  1  0.75977622  0.74175726  0.87855235  1
  N  N2698  1  0.87884668  0.50153559  0.88792649  1
  H  H2699  1  0.82776365  0.72675834  0.90456685  1
  H  H2700  1  0.88081700  0.63378361  0.99559835  1
  O  O2701  1  0.79714041  0.62568151  0.77038627  1
  C  C2702  1  0.77532695  0.61240806  0.75150288  1
  O  O2703  1  0.83224461  0.74231969  0.95573019  1
  H  H2704  1  0.91230227  0.67343340  0.99020040  1
  N  N2705  1  0.95923039  0.60668738  0.75308633  1
  N  N2706  1  0.99302952  0.69371735  0.96899127  1
  Zn  Zn2707  1  0.73160221  0.75167667  0.92440831  1
  H  H2708  1  0.64153965  0.99074147  0.78322932  1
  N  N2709  1  0.67313423  0.75465738  0.93003611  1
  N  N2710  1  0.70128897  0.76439307  0.99749773  1
  C  C2711  1  0.55672906  0.75559909  0.91384496  1
  H  H2712  1  0.58518533  0.76101733  0.91929305  1
  O  O2713  1  0.56133753  0.75298615  0.78557573  1
  N  N2714  1  0.66597762  0.98635196  0.78969327  1
  N  N2715  1  0.65665366  0.76049870  0.86789845  1
  O  O2716  1  0.53714598  0.87639310  0.90676283  1
  H  H2717  1  0.59154761  0.75617012  0.84185706  1
  H  H2718  1  0.57882321  0.81250395  0.85468754  1
  C  C2719  1  0.53592256  0.79377680  0.91035987  1
  C  C2720  1  0.55266663  0.84112868  0.91726155  1
  O  O2721  1  0.58414292  0.84256890  0.92461218  1
  N  N2722  1  0.59755191  0.78510816  0.85384346  1
  N  N2723  1  0.60310912  0.89901193  0.83584359  1
  C  C2724  1  0.63122472  0.79336917  0.86647984  1
  N  N2725  1  0.63917576  0.82873593  0.88361930  1
  N  N2726  1  0.60982517  0.93162725  0.81994591  1
  Zn  Zn2727  1  0.65173249  0.89506329  0.86699665  1
  C  C2728  1  0.54118969  0.93307156  0.97921056  1
  N  N2729  1  0.65196124  0.95128703  0.83603374  1
  N  N2730  1  0.71327921  0.93581882  0.94298837  1
  C  C2731  1  0.68430100  0.91878341  0.92410952  1
  N  N2732  1  0.68234430  0.92946887  0.89503120  1
  N  N2733  1  0.66500174  0.88879068  0.93218923  1
  Zn  Zn2734  1  0.71092296  0.76994108  0.86240378  1
  C  C2735  1  0.67630387  0.96663983  0.81794093  1
  N  N2736  1  0.70111715  0.87140759  0.85037054  1
  Zn  Zn2737  1  0.67446027  0.82424208  0.92190733  1
  N  N2738  1  0.71530821  0.80743654  0.82614459  1
  N  N2739  1  0.71490294  0.80330123  0.95252364  1
  N  N2740  1  0.70932961  0.96340762  0.82632933  1
  N  N2741  1  0.71509705  0.87392224  0.79772101  1
  C  C2742  1  0.70681564  0.85137983  0.82347530  1
  C  C2743  1  0.71093106  0.80467867  0.98080764  1
  N  N2744  1  0.72486299  0.81295522  0.89926800  1
  C  C2745  1  0.56024104  0.79693054  0.78289999  1
  O  O2746  1  0.53985179  0.81943948  0.79766373  1
  H  H2747  1  0.71013069  0.93053243  0.96580409  1
  C  C2748  1  0.53750676  0.96338972  0.95660671  1
  Zn  Zn2749  1  0.72611684  0.93481185  0.86612808  1
  N  N2750  1  0.53082814  0.84190694  0.98799075  1
  H  H2751  1  0.71580281  0.97043785  0.93914228  1
  C  C2752  1  0.60053421  0.98059317  0.95276085  1
  C  C2753  1  0.57726264  0.92333763  0.98737786  1
  C  C2754  1  0.60569167  0.94728616  0.97509399  1
  H  H2755  1  0.56209286  0.88819025  0.76528626  1
  C  C2756  1  0.56597967  0.98727072  0.94262874  1
  C  C2757  1  0.58588385  0.82057691  0.75985095  1
  N  N2758  1  0.71621258  0.84522566  0.99487004  1
  H  H2759  1  0.51766604  0.91702035  0.99019046  1
  H  H2760  1  0.72928606  0.86263862  0.77912161  1
  H  H2761  1  0.63298637  0.93885903  0.98281888  1
  N  N2762  1  0.51704424  0.98866584  0.89394294  1
  C  C2763  1  0.74955764  0.84759264  0.89983654  1
  C  C2764  1  0.58317590  0.86737432  0.75317720  1
  N  N2765  1  0.74568926  0.98159657  0.89465537  1
  Zn  Zn2766  1  0.74892235  0.93363925  0.80189707  1
  N  N2767  1  0.50700966  0.81595748  0.99569054  1
  N  N2768  1  0.69772729  0.75591572  0.75043260  1
  H  H2769  1  0.61568111  0.75534257  0.75418494  1
  N  N2770  1  0.82159050  0.75076392  0.89004090  1
  C  C2771  1  0.81754642  0.75823139  0.97315233  1
  C  C2772  1  0.80194448  0.75325344  0.75463156  1
  N  N2773  1  0.80018091  0.75079161  0.78420515  1
  H  H2774  1  0.84662471  0.76360953  0.88535924  1
  N  N2775  1  0.99900349  0.90242788  0.77361218  1
  O  O2776  1  0.87518104  0.97919785  0.95263754  1
  Zn  Zn2777  1  0.79870839  0.85817430  0.84714132  1
  C  C2778  1  0.80431409  0.95864312  0.84898624  1
  N  N2779  1  0.75653771  0.86944876  0.87614652  1
  N  N2780  1  0.94802681  0.77294328  0.78383725  1
  N  N2781  1  0.93971373  0.84984487  0.93491290  1
  N  N2782  1  0.82190046  0.92535514  0.84839770  1
  C  C2783  1  0.79505828  0.85848860  0.78169676  1
  H  H2784  1  0.86859119  0.84066611  0.90682142  1
  Zn  Zn2785  1  0.94289377  0.78680830  0.82855209  1
  N  N2786  1  0.77304950  0.85107322  0.92593746  1
  C  C2787  1  0.85080009  0.99618328  0.93527438  1
  H  H2788  1  0.96626334  0.84941287  0.75476769  1
  H  H2789  1  0.96458288  0.94066192  0.86119360  1
  Zn  Zn2790  1  0.94789728  0.99189845  0.79183689  1
  H  H2791  1  0.75593381  0.95869542  0.90996265  1
  N  N2792  1  0.88287601  0.84972990  0.88864913  1
  C  C2793  1  0.95635800  0.79164758  0.89608304  1
  N  N2794  1  0.90538139  0.78948875  0.97825156  1
  H  H2795  1  0.99189222  0.81713626  0.93755611  1
  N  N2796  1  0.89364230  0.91756766  0.75552740  1
  H  H2797  1  0.76490005  0.99195088  0.87970170  1
  N  N2798  1  0.76966694  0.85886825  0.75591443  1
  H  H2799  1  0.97419763  0.98802684  0.87745275  1
  C  C2800  1  0.93072518  0.79383544  0.76260917  1
  Zn  Zn2801  1  0.76110592  0.77272396  0.81022215  1
  O  O2802  1  0.82615864  0.97298746  0.92756677  1
  N  N2803  1  0.86471317  0.92482189  0.96853602  1
  H  H2804  1  0.76326524  0.84167435  0.94588562  1
  N  N2805  1  0.84815672  0.81943126  0.85018572  1
  Zn  Zn2806  1  0.83581816  0.77765418  0.81423840  1
  H  H2807  1  0.78691526  0.88096557  0.93061419  1
  N  N2808  1  0.92251055  0.89292716  0.83106409  1
  N  N2809  1  0.97831482  0.85574018  0.81752751  1
  N  N2810  1  0.98306412  0.95433075  0.87469901  1
  N  N2811  1  0.75823983  0.98038280  0.76939745  1
  N  N2812  1  0.97611109  0.97314606  0.94311656  1
  H  H2813  1  0.95122498  0.97811901  0.95186120  1
  C  C2814  1  0.87993171  0.83429660  0.85843976  1
  H  H2815  1  0.90892226  0.85063738  0.89775793  1
  N  N2816  1  0.95322617  0.76179747  0.87204142  1
  N  N2817  1  0.82481349  0.83810200  0.78225176  1
  N  N2818  1  0.88658942  0.91589950  0.98725332  1
  C  C2819  1  0.79088504  0.76289426  0.87226183  1
  H  H2820  1  0.97693807  0.94096921  0.93563315  1
  N  N2821  1  0.93649911  0.79241668  0.91954885  1
  N  N2822  1  0.96396423  0.92402091  0.79746276  1
  N  N2823  1  0.90531105  0.83420249  0.83830679  1
  H  H2824  1  0.90167347  0.91589784  0.83145357  1
  N  N2825  1  0.89755835  0.78138689  0.75743877  1
  N  N2826  1  0.96145819  0.86981221  0.91915502  1
  N  N2827  1  0.97362163  0.83287913  0.89095139  1
  C  C2828  1  0.95376612  0.89145112  0.81661034  1
  N  N2829  1  0.78197465  0.87981043  0.80514920  1
  N  N2830  1  0.79285411  0.78561474  0.84636128  1
  N  N2831  1  0.77009645  0.95924752  0.84076032  1
