# generated using pymatgen
data_Cu6H21C45N12O13
_symmetry_space_group_name_H-M   'P 1'
_cell_length_a   24.97246056
_cell_length_b   21.57183131
_cell_length_c   18.94273019
_cell_angle_alpha   90.00000000
_cell_angle_beta   90.00000000
_cell_angle_gamma   90.00000000
_symmetry_Int_Tables_number   1
_chemical_formula_structural   Cu6H21C45N12O13
_chemical_formula_sum   'Cu48 H168 C360 N96 O104'
_cell_volume   10204.48107896
_cell_formula_units_Z   8
loop_
 _symmetry_equiv_pos_site_id
 _symmetry_equiv_pos_as_xyz
  1  'x, y, z'
loop_
 _atom_site_type_symbol
 _atom_site_label
 _atom_site_symmetry_multiplicity
 _atom_site_fract_x
 _atom_site_fract_y
 _atom_site_fract_z
 _atom_site_occupancy
  C  C0  1  0.12649324  0.17403081  0.39745430  1
  O  O1  1  0.06332264  0.18307214  0.15516726  1
  N  N2  1  0.12178784  0.07348185  0.48955343  1
  C  C3  1  0.09693355  0.10067073  0.22701396  1
  C  C4  1  0.17022543  0.39134823  0.24353066  1
  N  N5  1  0.10227443  0.02278762  0.48205300  1
  C  C6  1  0.07988807  0.04667944  0.26139884  1
  H  H7  1  0.14074297  0.02336387  0.13518845  1
  Cu  Cu8  1  0.04096106  0.02186261  0.41488847  1
  N  N9  1  0.09075971  0.13561841  0.43036598  1
  N  N10  1  0.02426360  0.15701476  0.40981462  1
  H  H11  1  0.24170166  0.42480173  0.09228205  1
  N  N12  1  0.14612894  0.16747888  0.02675881  1
  N  N13  1  0.21102800  0.09475634  0.05038039  1
  C  C14  1  0.21252059  0.21804771  0.36345644  1
  H  H15  1  0.03725488  0.03108231  0.27008422  1
  C  C16  1  0.14979182  0.11376870  0.21383804  1
  Cu  Cu17  1  0.18170345  0.25177181  0.03067826  1
  C  C18  1  0.05306305  0.14218077  0.19505551  1
  H  H19  1  0.07231117  0.29607017  0.46080949  1
  C  C20  1  0.18795227  0.17013174  0.40282857  1
  N  N21  1  0.02847159  0.20464357  0.37664359  1
  C  C22  1  0.21580663  0.11516149  0.43236196  1
  H  H23  1  0.22381259  0.18868359  0.20814314  1
  C  C24  1  0.16056902  0.11137323  0.03474260  1
  C  C25  1  0.16609564  0.45333163  0.28301315  1
  H  H26  1  0.15740192  0.15252041  0.17682740  1
  C  C27  1  0.18791625  0.07674730  0.24800536  1
  C  C28  1  0.11075420  0.02242355  0.09133819  1
  C  C29  1  0.01552478  0.36326604  0.35746155  1
  H  H30  1  0.07668792  0.45859743  0.27420685  1
  H  H31  1  0.19375859  0.47627134  0.02565482  1
  N  N32  1  0.09909921  0.21925875  0.36477623  1
  H  H33  1  0.18446612  0.25112010  0.34114049  1
  O  O34  1  0.11682499  0.28240259  0.00868465  1
  H  H35  1  0.19606898  0.07108658  0.45268013  1
  N  N36  1  0.20456760  0.30221264  0.16517201  1
  C  C37  1  0.03088245  0.41216903  0.40291702  1
  C  C38  1  0.05781397  0.40051268  0.47061300  1
  C  C39  1  0.11065814  0.06354582  0.03424014  1
  C  C40  1  0.17493542  0.01976878  0.28231165  1
  H  H41  1  0.02345004  0.31513180  0.37094400  1
  N  N42  1  0.13007969  0.35425602  0.22115404  1
  N  N43  1  0.15687926  0.29498197  0.16848465  1
  N  N44  1  0.21705528  0.01533019  0.05344262  1
  C  C45  1  0.01434934  0.47339256  0.38080306  1
  H  H46  1  0.02966261  0.33837215  0.03653045  1
  C  C47  1  0.11491528  0.48191070  0.29034954  1
  N  N48  1  0.21646293  0.36667133  0.21610917  1
  C  C49  1  0.21372828  0.48490419  0.30635681  1
  C  C50  1  0.24609566  0.09364513  0.23761346  1
  C  C51  1  0.12083019  0.00829094  0.28970873  1
  C  C52  1  0.08077909  0.33907931  0.48853343  1
  O  O53  1  0.24396628  0.22179734  0.05110946  1
  O  O54  1  0.00201535  0.13003489  0.20897384  1
  C  C55  1  0.10847075  0.44747259  0.56962465  1
  H  H56  1  0.11957783  0.48648782  0.60336877  1
  C  C57  1  0.13619434  0.05295295  0.66986775  1
  C  C58  1  0.23839494  0.16345112  0.60846176  1
  H  H59  1  0.01037191  0.35577036  0.58523096  1
  C  C60  1  0.07018638  0.37351399  0.86445324  1
  C  C61  1  0.11940253  0.33387791  0.54121639  1
  Cu  Cu62  1  0.02922951  0.10183951  0.65360609  1
  O  O63  1  0.21863182  0.26215064  0.64279273  1
  C  C64  1  0.17749879  0.38341853  0.63205517  1
  C  C65  1  0.18587816  0.08099673  0.63776472  1
  C  C66  1  0.06737446  0.34775015  0.93237064  1
  H  H67  1  0.16232618  0.17618062  0.66704404  1
  C  C68  1  0.22366770  0.03920293  0.60797348  1
  O  O69  1  0.09810924  0.08998101  0.69209340  1
  C  C70  1  0.02589133  0.40892292  0.84573624  1
  C  C71  1  0.19204267  0.14336502  0.64325724  1
  O  O72  1  0.04086034  0.24295033  0.57996556  1
  C  C73  1  0.11967326  0.31689598  0.95408695  1
  O  O74  1  0.15815373  0.32203544  0.91586913  1
  C  C75  1  0.02987794  0.44880791  0.78117428  1
  O  O76  1  0.06666272  0.44937527  0.74127067  1
  H  H77  1  0.07103784  0.10929814  0.94684872  1
  C  C78  1  0.13419566  0.38886168  0.58157570  1
  H  H79  1  0.10490114  0.36479123  0.82898547  1
  N  N80  1  0.21352868  0.38715332  0.66997229  1
  C  C81  1  0.02287888  0.23671983  0.63742273  1
  O  O82  1  0.02926803  0.18758678  0.67654647  1
  C  C83  1  0.07128812  0.06858651  0.98253859  1
  C  C84  1  0.07018371  0.45341814  0.51551078  1
  Cu  Cu85  1  0.24155558  0.30957146  0.72252560  1
  C  C86  1  0.02710851  0.35681471  0.98127501  1
  O  O87  1  0.24729954  0.24139372  0.78950514  1
  H  H88  1  0.05339148  0.49871346  0.51024940  1
  H  H89  1  0.13859754  0.28840298  0.54742446  1
  H  H90  1  0.00339327  0.01787772  0.93471634  1
  C  C91  1  0.03004794  0.02295850  0.97983442  1
  H  H92  1  0.22533637  0.01199758  0.79549655  1
  O  O93  1  0.13884680  0.91523584  0.34721483  1
  O  O94  1  0.01792483  0.72777534  0.39390084  1
  C  C95  1  0.11275218  0.54002082  0.32039077  1
  C  C96  1  0.11182465  0.73516412  0.38326213  1
  C  C97  1  0.15575628  0.77169080  0.38080888  1
  C  C98  1  0.08670673  0.55800906  0.07632081  1
  C  C99  1  0.11392496  0.67110243  0.37145877  1
  H  H100  1  0.17278659  0.57930159  0.21584331  1
  H  H101  1  0.15378108  0.82323675  0.38755326  1
  Cu  Cu102  1  0.00515657  0.88608395  0.38293424  1
  C  C103  1  0.05536291  0.76077350  0.39334770  1
  C  C104  1  0.10239666  0.58202738  0.14930926  1
  C  C105  1  0.16752032  0.50457833  0.05753784  1
  C  C106  1  0.03640160  0.57813293  0.05138944  1
  C  C107  1  0.18949007  0.53172447  0.12072960  1
  H  H108  1  0.20511870  0.98624007  0.29944661  1
  H  H109  1  0.07542070  0.64496990  0.37248711  1
  C  C110  1  0.06744556  0.98162160  0.09142115  1
  O  O111  1  0.05370258  0.81979991  0.41222282  1
  C  C112  1  0.16210190  0.64081005  0.35533598  1
  C  C113  1  0.15518817  0.56353355  0.16557158  1
  C  C114  1  0.02785575  0.98040891  0.03807773  1
  O  O115  1  0.05626913  0.92448545  0.31640272  1
  C  C116  1  0.10524143  0.94688734  0.32167212  1
  H  H117  1  0.06489259  0.95218281  0.13781710  1
  C  C118  1  0.16070814  0.57471494  0.33851835  1
  H  H119  1  0.02319775  0.51481032  0.41316151  1
  H  H120  1  0.07492370  0.56404030  0.32167155  1
  C  C121  1  0.20505174  0.74218947  0.36645320  1
  C  C122  1  0.20869451  0.67817431  0.36042186  1
  O  O123  1  0.07021916  0.61119514  0.18584985  1
  O  O124  1  0.02461149  0.94351596  0.45295385  1
  C  C125  1  0.21281343  0.54579991  0.33229092  1
  C  C126  1  0.11607536  0.51681963  0.03466078  1
  H  H127  1  0.24953766  0.66078788  0.35434487  1
  H  H128  1  0.24927123  0.56660867  0.35018896  1
  H  H129  1  0.01080378  0.88187407  0.73824043  1
  C  C130  1  0.20523767  0.82549455  0.84997722  1
  H  H131  1  0.14508793  0.76087890  0.58570642  1
  N  N132  1  0.24404910  0.72865196  0.57920427  1
  N  N133  1  0.02727332  0.75112476  0.89740383  1
  H  H134  1  0.17976399  0.93064645  0.98589980  1
  C  C135  1  0.10045671  0.77076625  0.68333461  1
  H  H136  1  0.15089851  0.75401502  0.80975303  1
  O  O137  1  0.21503207  0.51495077  0.67300770  1
  C  C138  1  0.09413121  0.67826059  0.76540056  1
  H  H139  1  0.06156922  0.80105501  0.78945530  1
  C  C140  1  0.20637972  0.57250968  0.64744671  1
  H  H141  1  0.17673259  0.68198231  0.61639411  1
  C  C142  1  0.14710509  0.58425130  0.75124538  1
  C  C143  1  0.11453066  0.78857103  0.61229562  1
  H  H144  1  0.15748439  0.53705303  0.76672071  1
  C  C145  1  0.12176350  0.86603080  0.94545925  1
  C  C146  1  0.08206364  0.59672763  0.85628057  1
  C  C147  1  0.15678055  0.79453692  0.84555439  1
  O  O148  1  0.22575958  0.58598897  0.59349255  1
  C  C149  1  0.16715775  0.61146481  0.68982295  1
  H  H150  1  0.06730909  0.70481855  0.80005169  1
  C  C151  1  0.15399428  0.67042564  0.66562429  1
  C  C152  1  0.04814557  0.87031175  0.62471224  1
  C  C153  1  0.11735709  0.70798519  0.70436541  1
  C  C154  1  0.21437240  0.87456842  0.89904409  1
  O  O155  1  0.04040186  0.62747899  0.88137344  1
  C  C156  1  0.06553085  0.80758662  0.73106096  1
  C  C157  1  0.17227026  0.89213254  0.94744535  1
  C  C158  1  0.10989424  0.61983499  0.79004868  1
  C  C159  1  0.06569017  0.77975050  0.89668349  1
  C  C160  1  0.11449764  0.81577767  0.89519422  1
  H  H161  1  0.19712215  0.90821506  0.74611134  1
  Cu  Cu162  1  0.01435068  0.67281921  0.95709121  1
  C  C163  1  0.04091431  0.85612488  0.70270290  1
  O  O164  1  0.10053962  0.55526749  0.88860087  1
  C  C165  1  0.08404080  0.83461598  0.58124186  1
  H  H166  1  0.23847338  0.94661781  0.52994144  1
  N  N167  1  0.23073139  0.76266890  0.53140007  1
  H  H168  1  0.08913400  0.87851173  0.98205726  1
  H  H169  1  0.08287018  0.83834178  0.52428887  1
  N  N170  1  0.23226200  0.83907323  0.56298326  1
  C  C171  1  0.23197394  0.92936822  0.72582793  1
  H  H172  1  0.21610986  0.98645854  0.61426193  1
  C  C173  1  0.00711729  0.91045737  0.60030487  1
  C  C174  1  0.24953453  0.83852574  0.62996440  1
  H  H175  1  0.24397619  0.99928070  0.92652421  1
  H  H176  1  0.23775784  0.80886325  0.81154125  1
  O  O177  1  0.13010043  0.99931012  0.67029298  1
  H  H178  1  0.10592887  0.50369510  0.97842082  1
  C  C179  1  0.29790157  0.16404647  0.38527818  1
  C  C180  1  0.33987737  0.07057980  0.21394904  1
  C  C181  1  0.35552900  0.16159819  0.36445196  1
  Cu  Cu182  1  0.41680138  0.28367957  0.01885242  1
  C  C183  1  0.37939839  0.21926725  0.34184138  1
  C  C184  1  0.38102139  0.10429551  0.36475019  1
  C  C185  1  0.26836197  0.21415217  0.35057413  1
  N  N186  1  0.47500606  0.18129762  0.07159621  1
  H  H187  1  0.28587420  0.00285412  0.25848784  1
  H  H188  1  0.36024325  0.05985945  0.38418460  1
  C  C189  1  0.27069117  0.46066696  0.11232215  1
  N  N190  1  0.35377274  0.41017622  0.40297123  1
  O  O191  1  0.31417857  0.23364687  0.17354994  1
  Cu  Cu192  1  0.44024493  0.08242784  0.01966633  1
  C  C193  1  0.34815492  0.13055117  0.18825077  1
  H  H194  1  0.28715833  0.24661558  0.31338670  1
  H  H195  1  0.36033441  0.26467537  0.34160534  1
  O  O196  1  0.30888786  0.35424640  0.05996523  1
  N  N197  1  0.34926202  0.19407567  0.04429929  1
  C  C198  1  0.46362714  0.04434395  0.33930274  1
  N  N199  1  0.40939806  0.17926767  0.10224068  1
  N  N200  1  0.45348841  0.12236582  0.17485708  1
  C  C201  1  0.34554082  0.38831057  0.08966239  1
  Cu  Cu202  1  0.28139676  0.14048250  0.05840375  1
  C  C203  1  0.45058272  0.27165716  0.27855666  1
  C  C204  1  0.30704635  0.17549553  0.19109604  1
  N  N205  1  0.34848843  0.24096660  0.00916784  1
  O  O206  1  0.42116967  0.30902747  0.25063135  1
  O  O207  1  0.39122676  0.37227776  0.08454467  1
  C  C208  1  0.40446132  0.14263857  0.15883261  1
  Cu  Cu209  1  0.28806151  0.27979966  0.09952399  1
  N  N210  1  0.49001991  0.31141075  0.04109737  1
  C  C211  1  0.43289779  0.10397375  0.34067296  1
  C  C212  1  0.32613752  0.44888375  0.11656188  1
  C  C213  1  0.42884421  0.21402515  0.31465237  1
  O  O214  1  0.37096567  0.05115647  0.02409479  1
  C  C215  1  0.45798251  0.15845585  0.31743635  1
  N  N216  1  0.38602038  0.38670017  0.44345474  1
  C  C217  1  0.29099104  0.05228584  0.24015424  1
  H  H218  1  0.37520054  0.03634255  0.21592928  1
  C  C219  1  0.27096856  0.11280604  0.41792634  1
  N  N220  1  0.43886114  0.43882052  0.45427570  1
  H  H221  1  0.29339856  0.07004293  0.43358595  1
  N  N222  1  0.38051349  0.48327828  0.38661751  1
  H  H223  1  0.40551323  0.48780577  0.13641381  1
  C  C224  1  0.25571888  0.15414504  0.21359148  1
  H  H225  1  0.25176046  0.46070768  0.30086728  1
  C  C226  1  0.36136112  0.49651028  0.13918833  1
  Cu  Cu227  1  0.48171673  0.27910704  0.13252967  1
  C  C228  1  0.42981174  0.48896696  0.41556490  1
  H  H229  1  0.48563630  0.22018682  0.40036044  1
  H  H230  1  0.49748217  0.15480736  0.29153908  1
  O  O231  1  0.49103591  0.02726735  0.06447893  1
  H  H232  1  0.28224600  0.02439075  0.10893174  1
  C  C233  1  0.47744877  0.28268642  0.49419067  1
  H  H234  1  0.37731167  0.07560363  0.55229205  1
  C  C235  1  0.49739625  0.27998548  0.78906386  1
  C  C236  1  0.29995839  0.01377407  0.73806318  1
  O  O237  1  0.31135748  0.39967888  0.62764940  1
  C  C238  1  0.28630569  0.23103607  0.82824625  1
  C  C239  1  0.47024983  0.33424725  0.60817991  1
  H  H240  1  0.39211301  0.32219953  0.77857904  1
  C  C241  1  0.29875903  0.12900159  0.77388334  1
  O  O242  1  0.47437154  0.27820331  0.84764748  1
  O  O243  1  0.45673431  0.12852970  0.93508643  1
  H  H244  1  0.31106074  0.14793329  0.54528752  1
  C  C245  1  0.31859877  0.17230438  0.82025657  1
  H  H246  1  0.38946133  0.19633317  0.88786909  1
  C  C247  1  0.41652463  0.35700498  0.60810348  1
  C  C248  1  0.36828793  0.16217580  0.85429998  1
  C  C249  1  0.39441120  0.10524683  0.84760495  1
  C  C250  1  0.33332710  0.36993089  0.67572806  1
  C  C251  1  0.36171287  0.03053946  0.53364835  1
  C  C252  1  0.32300221  0.07004008  0.77397647  1
  C  C253  1  0.38943685  0.34859981  0.67155359  1
  C  C254  1  0.30568557  0.01579840  0.54381497  1
  C  C255  1  0.41536792  0.32319428  0.72946196  1
  H  H256  1  0.39171286  0.01289593  0.81163690  1
  H  H257  1  0.39761155  0.37933333  0.56072046  1
  C  C258  1  0.44737302  0.09864649  0.87885807  1
  Cu  Cu259  1  0.27280248  0.24783785  0.96376600  1
  O  O260  1  0.29986308  0.08951613  0.97286835  1
  O  O261  1  0.30771982  0.35505861  0.73004829  1
  O  O262  1  0.29861376  0.26744322  0.87830129  1
  C  C263  1  0.26769368  0.06192078  0.57261710  1
  C  C264  1  0.46865445  0.30605368  0.72740591  1
  C  C265  1  0.37176317  0.05785152  0.81167594  1
  O  O266  1  0.48131434  0.06061526  0.85423275  1
  Cu  Cu267  1  0.26604057  0.45610289  0.65055093  1
  C  C268  1  0.27576723  0.12805602  0.57201523  1
  H  H269  1  0.36795587  0.00416427  0.66385854  1
  H  H270  1  0.25888697  0.13640902  0.74798984  1
  O  O271  1  0.28785264  0.25300735  0.56925533  1
  H  H272  1  0.47477046  0.01155989  0.71066813  1
  C  C273  1  0.49829369  0.31011075  0.66498384  1
  C  C274  1  0.49618754  0.00003559  0.66017298  1
  C  C275  1  0.25281100  0.23115213  0.60486441  1
  H  H276  1  0.43432356  0.26938652  0.50949449  1
  C  C277  1  0.33249553  0.04649069  0.98056697  1
  O  O278  1  0.36375058  0.65221433  0.18708213  1
  N  N279  1  0.25354882  0.99137989  0.08658559  1
  H  H280  1  0.29707242  0.87183847  0.47213871  1
  C  C281  1  0.37202349  0.92286024  0.48640460  1
  C  C282  1  0.40440833  0.87983820  0.44685816  1
  C  C283  1  0.49456478  0.63323989  0.33595255  1
  C  C284  1  0.45986018  0.58532006  0.35411428  1
  O  O285  1  0.40185128  0.71218506  0.42943091  1
  C  C286  1  0.46841738  0.54813674  0.41432548  1
  O  O287  1  0.29947306  0.75550205  0.35369418  1
  C  C288  1  0.31400566  0.91417932  0.49251570  1
  Cu  Cu289  1  0.36752295  0.78275644  0.38175273  1
  H  H290  1  0.42587100  0.57561156  0.32002315  1
  O  O291  1  0.48975299  0.86062684  0.30082689  1
  N  N292  1  0.42608621  0.84230258  0.41638476  1
  C  C293  1  0.38246383  0.60334097  0.17325075  1
  H  H294  1  0.47423632  0.74090004  0.49232541  1
  Cu  Cu295  1  0.47161709  0.91562517  0.37020153  1
  C  C296  1  0.38370659  0.67943172  0.48091930  1
  O  O297  1  0.43471758  0.59277196  0.17097752  1
  C  C298  1  0.34051019  0.55395704  0.15963307  1
  Cu  Cu299  1  0.47531438  0.62953895  0.10855411  1
  O  O300  1  0.44023103  0.99162664  0.35807642  1
  C  C301  1  0.28688877  0.56480202  0.15244262  1
  O  O302  1  0.34200705  0.65209015  0.47985207  1
  H  H303  1  0.48635638  0.65687327  0.28768729  1
  O  O304  1  0.44242424  0.61200961  0.02329025  1
  H  H305  1  0.27380421  0.61309554  0.16619309  1
  H  H306  1  0.43722765  0.99125133  0.49382022  1
  C  C307  1  0.25217943  0.78526323  0.35732522  1
  O  O308  1  0.25270380  0.83906864  0.37089591  1
  C  C309  1  0.25056123  0.52076831  0.12871908  1
  O  O310  1  0.38050702  0.77405037  0.93921351  1
  C  C311  1  0.46390270  0.71783826  0.54079128  1
  C  C312  1  0.35789565  0.87792969  0.95265262  1
  C  C313  1  0.38865777  0.86786871  0.76195077  1
  C  C314  1  0.41953435  0.68048963  0.54584038  1
  C  C315  1  0.48199373  0.69530699  0.66661807  1
  N  N316  1  0.25390317  0.77833359  0.65135763  1
  C  C317  1  0.42832675  0.90571091  0.73106363  1
  C  C318  1  0.27683914  0.96600211  0.92895868  1
  O  O319  1  0.45620819  0.68178863  0.94220892  1
  H  H320  1  0.36462464  0.77059882  0.62151041  1
  C  C321  1  0.39791837  0.82706557  0.95888191  1
  N  N322  1  0.28068509  0.70047727  0.84029485  1
  C  C323  1  0.26761369  0.90263097  0.91644803  1
  C  C324  1  0.43124849  0.66600190  0.66683206  1
  C  C325  1  0.44076578  0.90143386  0.65874454  1
  C  C326  1  0.30961381  0.85795590  0.92334697  1
  H  H327  1  0.36030949  0.62929785  0.61075126  1
  C  C328  1  0.31204234  0.92789214  0.65232996  1
  H  H329  1  0.37655534  0.87129339  0.81787990  1
  N  N330  1  0.27793435  0.76025778  0.73749027  1
  H  H331  1  0.48453872  0.88960220  0.53411968  1
  C  C332  1  0.46515847  0.62988215  0.96515441  1
  C  C333  1  0.41873214  0.84919430  0.62063658  1
  C  C334  1  0.39980925  0.65412732  0.60779496  1
  N  N335  1  0.33472400  0.74910493  0.82218557  1
  C  C336  1  0.48396206  0.94407138  0.62757453  1
  H  H337  1  0.43218205  0.83537858  0.56732916  1
  H  H338  1  0.30290292  0.80812456  0.90729642  1
  C  C339  1  0.38056707  0.81163588  0.64835770  1
  O  O340  1  0.36938229  0.61713757  0.73986658  1
  O  O341  1  0.43531612  0.66523509  0.79373543  1
  C  C342  1  0.40950516  0.64763746  0.73644413  1
  C  C343  1  0.36603743  0.82095727  0.72019322  1
  O  O344  1  0.44398351  0.83688220  0.97949731  1
  C  C345  1  0.32769584  0.77439949  0.75839621  1
  Cu  Cu346  1  0.41045876  0.71449493  0.86708788  1
  H  H347  1  0.45033889  0.94218375  0.76127566  1
  C  C348  1  0.36688915  0.93903810  0.97070748  1
  H  H349  1  0.33554297  0.90714681  0.60906519  1
  C  C350  1  0.32634968  0.98161685  0.95572045  1
  C  C351  1  0.33014891  0.98281464  0.68431615  1
  N  N352  1  0.47486675  0.77714115  0.85529955  1
  C  C353  1  0.26451436  0.89689097  0.67566362  1
  C  C354  1  0.28212994  0.95674194  0.52585287  1
  N  N355  1  0.25351190  0.70225193  0.78672973  1
  C  C356  1  0.49791857  0.93006278  0.55865570  1
  N  N357  1  0.49241056  0.77954861  0.79635760  1
  C  C358  1  0.49745243  0.72122767  0.60111686  1
  C  C359  1  0.25004493  0.98478431  0.75772469  1
  C  C360  1  0.39374738  0.98350913  0.50578479  1
  H  H361  1  0.40320114  0.95495128  0.99651154  1
  Cu  Cu362  1  0.67640209  0.20849853  0.27477149  1
  O  O363  1  0.50092392  0.27386975  0.27618247  1
  N  N364  1  0.58252551  0.16964603  0.37595224  1
  Cu  Cu365  1  0.61142879  0.09628138  0.33221902  1
  C  C366  1  0.59144269  0.22917418  0.37296835  1
  N  N367  1  0.62716496  0.25213400  0.32790367  1
  N  N368  1  0.65856602  0.24551695  0.18607916  1
  N  N369  1  0.63710019  0.42789141  0.31713786  1
  H  H370  1  0.53220875  0.12370681  0.01924179  1
  Cu  Cu371  1  0.57968068  0.01255152  0.23848514  1
  Cu  Cu372  1  0.56570382  0.32213993  0.06108885  1
  N  N373  1  0.58229190  0.09452847  0.19703262  1
  O  O374  1  0.58370019  0.40328220  0.20796091  1
  Cu  Cu375  1  0.58462044  0.21549240  0.18192681  1
  N  N376  1  0.55654199  0.29490998  0.15558456  1
  Cu  Cu377  1  0.62992462  0.33438000  0.17990142  1
  C  C378  1  0.50285491  0.25626483  0.43434109  1
  H  H379  1  0.62328927  0.32333978  0.45817418  1
  C  C380  1  0.55623491  0.27479792  0.42173026  1
  N  N381  1  0.59640233  0.13426318  0.23697858  1
  N  N382  1  0.70556240  0.12581400  0.44680379  1
  C  C383  1  0.64403166  0.42829344  0.07349106  1
  N  N384  1  0.68374301  0.05531673  0.47743005  1
  N  N385  1  0.61354972  0.45153686  0.26940492  1
  C  C386  1  0.60732867  0.46387435  0.03613800  1
  C  C387  1  0.66173718  0.37320023  0.03684692  1
  H  H388  1  0.65951289  0.44517439  0.12486564  1
  N  N389  1  0.63653026  0.01814673  0.30353732  1
  Cu  Cu390  1  0.63131907  0.33861556  0.32723163  1
  N  N391  1  0.73640486  0.32168711  0.11560446  1
  Cu  Cu392  1  0.54297809  0.34413408  0.24565503  1
  N  N393  1  0.71245299  0.14100940  0.34338115  1
  C  C394  1  0.53374359  0.00035511  0.04334405  1
  C  C395  1  0.74371298  0.32893260  0.42648031  1
  C  C396  1  0.70548532  0.34555913  0.08106797  1
  C  C397  1  0.58084261  0.31785233  0.46511940  1
  O  O398  1  0.50842455  0.04738314  0.31807287  1
  C  C399  1  0.72993004  0.26447685  0.43304193  1
  N  N400  1  0.74351111  0.11009408  0.30764449  1
  C  C401  1  0.70432248  0.24083899  0.49302104  1
  N  N402  1  0.71799756  0.16391524  0.03968887  1
  Cu  Cu403  1  0.72583723  0.23535307  0.14874327  1
  C  C404  1  0.69587649  0.16871309  0.49688344  1
  C  C405  1  0.72941057  0.36972373  0.48315090  1
  C  C406  1  0.57337254  0.03275877  0.00116094  1
  N  N407  1  0.50077484  0.15715437  0.12088549  1
  H  H408  1  0.74797869  0.23288815  0.39698418  1
  C  C409  1  0.59729866  0.13036500  0.94941296  1
  H  H410  1  0.59481163  0.37529155  0.88041242  1
  H  H411  1  0.66463072  0.30762852  0.94519268  1
  C  C412  1  0.63681422  0.09916200  0.90763574  1
  N  N413  1  0.66627083  0.06526644  0.53635267  1
  H  H414  1  0.54068152  0.29572014  0.66229032  1
  H  H415  1  0.68288060  0.46490192  0.95620367  1
  C  C416  1  0.55569252  0.34560550  0.52342638  1
  O  O417  1  0.61410316  0.21855718  0.88441748  1
  C  C418  1  0.70269742  0.35431321  0.71299108  1
  C  C419  1  0.59050764  0.19442043  0.93946845  1
  H  H420  1  0.65904874  0.26818138  0.59017153  1
  Cu  Cu421  1  0.55210923  0.07263654  0.82398770  1
  H  H422  1  0.71622052  0.44538911  0.59701030  1
  C  C423  1  0.69528423  0.34415803  0.53690278  1
  C  C424  1  0.68142113  0.28168397  0.54474151  1
  H  H425  1  0.58361298  0.05742403  0.53978037  1
  O  O426  1  0.58380680  0.12831220  0.65235726  1
  N  N427  1  0.54285800  0.47585887  0.61526765  1
  O  O428  1  0.54353312  0.26002674  0.77974479  1
  H  H429  1  0.62303196  0.49145578  0.84703706  1
  C  C430  1  0.55647050  0.02377079  0.56367767  1
  C  C431  1  0.64444795  0.34794120  0.97012072  1
  H  H432  1  0.68072045  0.37553194  0.58100789  1
  N  N433  1  0.61603828  0.37399323  0.76844757  1
  H  H434  1  0.57606983  0.38132978  0.55470713  1
  C  C435  1  0.65285441  0.03568063  0.93264528  1
  C  C436  1  0.60908133  0.38657885  0.93463201  1
  N  N437  1  0.64146559  0.42265060  0.77633095  1
  N  N438  1  0.67006580  0.14309015  0.55220193  1
  O  O439  1  0.56066801  0.22921459  0.97790143  1
  C  C440  1  0.55003002  0.09294365  0.67188083  1
  N  N441  1  0.65398954  0.32680247  0.72029760  1
  Cu  Cu442  1  0.58345704  0.18303193  0.80144999  1
  C  C443  1  0.74169497  0.46673609  0.55373745  1
  H  H444  1  0.67081311  0.12945933  0.89547658  1
  C  C445  1  0.70616607  0.01819418  0.90501562  1
  O  O446  1  0.61751965  0.10765410  0.82431477  1
  Cu  Cu447  1  0.50019203  0.27373146  0.94073337  1
  C  C448  1  0.58954934  0.44243114  0.96782018  1
  O  O449  1  0.52653713  0.09832087  0.73362900  1
  C  C450  1  0.71958338  0.49336883  0.94444585  1
  N  N451  1  0.70108547  0.41217879  0.73941617  1
  C  C452  1  0.53566575  0.03699264  0.63049277  1
  C  C453  1  0.62166174  0.00328187  0.97977220  1
  H  H454  1  0.74174693  0.43959092  0.85632742  1
  N  N455  1  0.74161080  0.20510695  0.96406223  1
  H  H456  1  0.71664258  0.23076779  0.68147095  1
  H  H457  1  0.73974557  0.09878481  0.96346901  1
  C  C458  1  0.50298444  0.32504315  0.53950974  1
  C  C459  1  0.74780313  0.06231804  0.92186522  1
  C  C460  1  0.56453424  0.09732029  0.99261020  1
  H  H461  1  0.64440590  0.83707976  0.25500526  1
  O  O462  1  0.67095627  0.96787674  0.17899665  1
  Cu  Cu463  1  0.70493604  0.97767938  0.26830959  1
  C  C464  1  0.63304666  0.59766782  0.13208340  1
  O  O465  1  0.56632763  0.62710759  0.21109247  1
  O  O466  1  0.73436193  0.70724502  0.29918346  1
  C  C467  1  0.65103764  0.74675521  0.29830657  1
  C  C468  1  0.65059202  0.58861484  0.06419896  1
  O  O469  1  0.58887643  0.98847801  0.42595644  1
  C  C470  1  0.54970587  0.60895378  0.44157298  1
  C  C471  1  0.62668539  0.69565284  0.33152435  1
  H  H472  1  0.60676773  0.78703785  0.42604361  1
  H  H473  1  0.65070254  0.58666541  0.24606617  1
  O  O474  1  0.55903373  0.90129794  0.24846617  1
  C  C475  1  0.53783247  0.64652776  0.38193415  1
  C  C476  1  0.70369673  0.89450852  0.09691830  1
  C  C477  1  0.70971382  0.75117781  0.27952226  1
  C  C478  1  0.57427377  0.69878751  0.35296385  1
  H  H479  1  0.65755385  0.81503506  0.06116074  1
  C  C480  1  0.60043973  0.78679464  0.48400832  1
  O  O481  1  0.61980041  0.88881770  0.14281962  1
  Cu  Cu482  1  0.55333828  0.91899454  0.15589489  1
  C  C483  1  0.73470737  0.53968249  0.10972589  1
  O  O484  1  0.72684147  0.53987556  0.29650209  1
  C  C485  1  0.55543888  0.95709629  0.45832413  1
  O  O486  1  0.73203365  0.79640579  0.24362794  1
  C  C487  1  0.74635736  0.53455332  0.23979053  1
  C  C488  1  0.54563567  0.75363213  0.34011036  1
  C  C489  1  0.53737560  0.85726117  0.28231033  1
  C  C490  1  0.66456489  0.57901846  0.19101842  1
  C  C491  1  0.66251840  0.92034203  0.14281886  1
  C  C492  1  0.62355971  0.80090240  0.28177563  1
  C  C493  1  0.67336327  0.60269870  0.49211317  1
  H  H494  1  0.66482037  0.56235093  0.45938514  1
  O  O495  1  0.54288395  0.94414288  0.06080711  1
  O  O496  1  0.54474124  0.63718584  0.10118584  1
  H  H497  1  0.64860521  0.65375036  0.34294370  1
  C  C498  1  0.70184841  0.56006355  0.05392071  1
  C  C499  1  0.57971406  0.62459123  0.15080650  1
  H  H500  1  0.59834309  0.51071455  0.05948730  1
  Cu  Cu501  1  0.66135654  0.97982704  0.39586875  1
  C  C502  1  0.71277856  0.55183971  0.17656382  1
  C  C503  1  0.56987779  0.80165330  0.30235079  1
  N  N504  1  0.69116596  0.90663525  0.45776538  1
  C  C505  1  0.69523154  0.84100144  0.05631633  1
  C  C506  1  0.66358276  0.87506321  0.49048889  1
  H  H507  1  0.54971238  0.70841365  0.48515264  1
  O  O508  1  0.53313230  0.90936453  0.43048023  1
  O  O509  1  0.72662162  0.98360536  0.36041292  1
  H  H510  1  0.74149669  0.64115741  0.42537791  1
  C  C511  1  0.71533708  0.64453101  0.47229561  1
  H  H512  1  0.58664612  0.61634000  0.47371634  1
  H  H513  1  0.74949999  0.78470158  0.40250874  1
  C  C514  1  0.51269259  0.56186922  0.45932399  1
  H  H515  1  0.50259778  0.75284704  0.34786990  1
  H  H516  1  0.62917798  0.61006710  0.01781030  1
  C  C517  1  0.74862503  0.93180954  0.08512127  1
  C  C518  1  0.73706409  0.81886424  0.01252316  1
  H  H519  1  0.63410329  0.95725325  0.00290925  1
  H  H520  1  0.50405801  0.51471280  0.01597952  1
  H  H521  1  0.69779515  0.99951941  0.66301724  1
  C  C522  1  0.73033948  0.54771944  0.98439830  1
  C  C523  1  0.59841213  0.59748690  0.77973268  1
  H  H524  1  0.64650303  0.93460889  0.73805856  1
  H  H525  1  0.63413109  0.67412067  0.64834968  1
  C  C526  1  0.69825615  0.70848206  0.58413637  1
  O  O527  1  0.57453901  0.82669720  0.87957863  1
  H  H528  1  0.70558066  0.75306432  0.61403123  1
  C  C529  1  0.53291796  0.60897981  0.87770380  1
  H  H530  1  0.62957330  0.88109925  0.63323029  1
  O  O531  1  0.68591904  0.72791484  0.98710089  1
  C  C532  1  0.59182797  0.86452979  0.83208165  1
  C  C533  1  0.54775663  0.75839001  0.58833208  1
  C  C534  1  0.64599602  0.61401896  0.55646854  1
  O  O535  1  0.73130490  0.53223175  0.67958804  1
  H  H536  1  0.64909174  0.75689741  0.84295135  1
  C  C537  1  0.57189836  0.80637268  0.62841953  1
  C  C538  1  0.66653626  0.89028283  0.74656511  1
  C  C539  1  0.61343589  0.84291408  0.60169557  1
  H  H540  1  0.55643964  0.81600186  0.68155928  1
  C  C541  1  0.64338123  0.84726552  0.79182901  1
  O  O542  1  0.71069087  0.66436316  0.79794135  1
  O  O543  1  0.58536898  0.64774608  0.75618263  1
  N  N544  1  0.55430011  0.58516640  0.60949489  1
  O  O545  1  0.57038233  0.91351444  0.82176784  1
  C  C546  1  0.65611082  0.66745474  0.59956427  1
  C  C547  1  0.74058032  0.81518159  0.73135413  1
  C  C548  1  0.53478191  0.97219256  0.53009897  1
  C  C549  1  0.71458614  0.77203196  0.77078619  1
  C  C550  1  0.74051755  0.70897524  0.77665906  1
  C  C551  1  0.66748329  0.79140458  0.80688576  1
  C  C552  1  0.71811619  0.87592516  0.72007944  1
  H  H553  1  0.69365435  0.92645527  0.85294028  1
  O  O554  1  0.63539420  0.56465640  0.75060579  1
  C  C555  1  0.72173702  0.96204053  0.86499581  1
  H  H556  1  0.52270794  0.65101431  0.85184574  1
  C  C557  1  0.60226084  0.56631411  0.58555598  1
  C  C558  1  0.57445244  0.57311287  0.84602164  1
  Cu  Cu559  1  0.70754379  0.58661133  0.74578413  1
  C  C560  1  0.62660112  0.83507515  0.52596062  1
  C  C561  1  0.52289918  0.53121425  0.96919500  1
  C  C562  1  0.59134986  0.51779714  0.87267882  1
  C  C563  1  0.72571026  0.69362564  0.51934379  1
  N  N564  1  0.60522780  0.50454389  0.58764270  1
  C  C565  1  0.72506430  0.75865140  0.97969062  1
  Cu  Cu566  1  0.50968515  0.83325381  0.92729881  1
  N  N567  1  0.51452509  0.52112267  0.62772596  1
  C  C568  1  0.56552387  0.74575568  0.51805411  1
  C  C569  1  0.50794804  0.58803407  0.93921799  1
  H  H570  1  0.50664070  0.69677924  0.71352934  1
  C  C571  1  0.73795529  0.98066115  0.65209895  1
  C  C572  1  0.56514976  0.50091273  0.93696950  1
  H  H573  1  0.51623460  0.53338306  0.50867236  1
  C  C574  1  0.78436338  0.45992012  0.43813835  1
  C  C575  1  0.88599228  0.20080440  0.42264794  1
  C  C576  1  0.96114431  0.45113921  0.06873869  1
  C  C577  1  0.91366664  0.15003420  0.44742799  1
  Cu  Cu578  1  0.95655590  0.18457694  0.25385222  1
  O  O579  1  0.94424344  0.32848091  0.19378303  1
  H  H580  1  0.88776654  0.09468105  0.06685534  1
  H  H581  1  0.83293592  0.28027230  0.44419270  1
  O  O582  1  0.90127499  0.16724687  0.30802102  1
  C  C583  1  0.87558670  0.20501742  0.34616923  1
  N  N584  1  0.80689799  0.21823369  0.24307477  1
  C  C585  1  0.97164058  0.42806398  0.27276837  1
  H  H586  1  0.94841261  0.43677411  0.22511373  1
  N  N587  1  0.76661627  0.24844240  0.23572953  1
  H  H588  1  0.79126869  0.43681862  0.38550545  1
  N  N589  1  0.97136970  0.01409982  0.36635485  1
  C  C590  1  0.97154650  0.32001003  0.24329754  1
  C  C591  1  0.93952977  0.41798800  0.00949827  1
  Cu  Cu592  1  0.79333901  0.05271015  0.35769145  1
  O  O593  1  0.83737353  0.23919144  0.32648527  1
  H  H594  1  0.93164510  0.11706741  0.40578799  1
  N  N595  1  0.81068224  0.18008558  0.02601919  1
  C  C596  1  0.98995534  0.37175157  0.29435008  1
  O  O597  1  0.98206007  0.26621360  0.26947770  1
  C  C598  1  0.98728423  0.47749808  0.31839085  1
  N  N599  1  0.86921312  0.01432912  0.47022778  1
  C  C600  1  0.86047783  0.48144250  0.00662419  1
  H  H601  1  0.82638358  0.00881381  0.12179088  1
  C  C602  1  0.85811972  0.24319144  0.46559254  1
  N  N603  1  0.81312441  0.01807939  0.26116237  1
  H  H604  1  0.77088555  0.34050230  0.38317000  1
  C  C605  1  0.84655776  0.00374589  0.06835611  1
  C  C606  1  0.87864521  0.05035193  0.04128037  1
  H  H607  1  0.99995100  0.43789307  0.08597812  1
  C  C608  1  0.75158150  0.43384196  0.49134498  1
  N  N609  1  0.75805743  0.15150760  0.07375010  1
  H  H610  1  0.90315984  0.23704392  0.97779875  1
  N  N611  1  0.96075923  0.00677082  0.75319689  1
  N  N612  1  0.93406283  0.09955733  0.86057825  1
  H  H613  1  0.81486220  0.30389208  0.74343863  1
  H  H614  1  0.79155230  0.17803208  0.62069754  1
  H  H615  1  0.89461186  0.18535948  0.62343315  1
  C  C616  1  0.90192381  0.04361428  0.97215914  1
  C  C617  1  0.79542272  0.06226847  0.88238429  1
  O  O618  1  0.96378564  0.09639850  0.61731478  1
  C  C619  1  0.79308645  0.36232238  0.64447156  1
  C  C620  1  0.92158844  0.31871100  0.74313802  1
  N  N621  1  0.86492107  0.49726374  0.77609502  1
  C  C622  1  0.82640976  0.26895412  0.58725213  1
  C  C623  1  0.93249325  0.09575150  0.93084301  1
  C  C624  1  0.83394119  0.29101401  0.79633184  1
  C  C625  1  0.89253569  0.18438344  0.56549339  1
  O  O626  1  0.99076166  0.48939348  0.78020418  1
  O  O627  1  0.97506311  0.05638838  0.51059886  1
  C  C628  1  0.91639379  0.28776777  0.87559481  1
  C  C629  1  0.95713835  0.27169762  0.71975831  1
  C  C630  1  0.91494043  0.37464840  0.70894383  1
  C  C631  1  0.98386155  0.34444220  0.62647188  1
  H  H632  1  0.96651624  0.22582769  0.74219120  1
  C  C633  1  0.88647647  0.25471937  0.92759696  1
  C  C634  1  0.86345793  0.23270860  0.53707652  1
  C  C635  1  0.75162054  0.48227364  0.88659387  1
  C  C636  1  0.94688602  0.38965450  0.64978563  1
  H  H637  1  0.82623490  0.09818984  0.88994925  1
  H  H638  1  0.81868999  0.49194950  0.99079460  1
  H  H639  1  0.88744286  0.40857979  0.73089671  1
  H  H640  1  0.96029220  0.29340871  0.88028722  1
  C  C641  1  0.89081360  0.29989654  0.80996126  1
  H  H642  1  0.86024409  0.36277113  0.57016938  1
  C  C643  1  0.95364796  0.09424866  0.55218222  1
  C  C644  1  0.93523419  0.44574849  0.61129768  1
  O  O645  1  0.89218379  0.47403766  0.63250212  1
  H  H646  1  0.86573043  0.39818008  0.94479619  1
  N  N647  1  0.96367352  0.14192407  0.95599381  1
  N  N648  1  0.96735858  0.16761519  0.83366601  1
  C  C649  1  0.79192162  0.22972095  0.62411958  1
  C  C650  1  0.80361775  0.26734587  0.85288189  1
  C  C651  1  0.83154867  0.25115837  0.91550415  1
  N  N652  1  0.98697566  0.18719792  0.88761533  1
  C  C653  1  0.82756717  0.33540373  0.59416542  1
  N  N654  1  0.90869297  0.04143907  0.79689489  1
  H  H655  1  0.79324505  0.41409798  0.65600598  1
  H  H656  1  0.95197201  0.44617297  0.87645924  1
  C  C657  1  0.91908515  0.14223050  0.52112626  1
  O  O658  1  0.95831519  0.46065401  0.55775657  1
  C  C659  1  0.77200402  0.01330083  0.60573806  1
  C  C660  1  0.98329409  0.41604723  0.89178559  1
  C  C661  1  0.88551979  0.42765947  0.98342925  1
  C  C662  1  0.75288511  0.32399703  0.67431064  1
  C  C663  1  0.98631005  0.28874143  0.66153322  1
  C  C664  1  0.81202533  0.00971464  0.84499735  1
  H  H665  1  0.76024417  0.26341466  0.85270498  1
  C  C666  1  0.98259990  0.39294103  0.96160209  1
  C  C667  1  0.79446618  0.21627223  0.97205367  1
  C  C668  1  0.75178716  0.25928262  0.66720012  1
  H  H669  1  0.75756948  0.05600364  0.58001939  1
  C  C670  1  0.84879573  0.00047612  0.52295807  1
  C  C671  1  0.82915921  0.80322217  0.43807049  1
  C  C672  1  0.80738062  0.51734115  0.44976179  1
  C  C673  1  0.86639952  0.58417372  0.08204896  1
  C  C674  1  0.87281252  0.79480078  0.48316003  1
  H  H675  1  0.75322228  0.97904183  0.10868269  1
  O  O676  1  0.80277743  0.85593628  0.33287760  1
  N  N677  1  0.85360390  0.59240919  0.15212930  1
  N  N678  1  0.99762118  0.59806111  0.02981382  1
  Cu  Cu679  1  0.87886652  0.95628216  0.32266372  1
  C  C680  1  0.98553599  0.92952940  0.04578120  1
  O  O681  1  0.87720784  0.88497709  0.38339462  1
  C  C682  1  0.77943340  0.77449829  0.44244072  1
  N  N683  1  0.83226952  0.66607526  0.16220369  1
  H  H684  1  0.88610144  0.79624063  0.08947928  1
  C  C685  1  0.88608595  0.52072593  0.05690448  1
  C  C686  1  0.83556474  0.85077154  0.38145786  1
  H  H687  1  0.96974284  0.96036607  0.15443027  1
  O  O688  1  0.86287045  0.59109165  0.40273322  1
  N  N689  1  0.83254094  0.68945044  0.10310213  1
  C  C690  1  0.78660092  0.90886595  0.03799637  1
  Cu  Cu691  1  0.76276488  0.94764291  0.44041637  1
  C  C692  1  0.93242322  0.84358179  0.01058205  1
  C  C693  1  0.84318101  0.54153555  0.39249086  1
  H  H694  1  0.95840917  0.53949443  0.12441024  1
  O  O695  1  0.79372404  0.51092585  0.22678456  1
  Cu  Cu696  1  0.95072100  0.97334919  0.47803140  1
  C  C697  1  0.91043730  0.83695212  0.07727309  1
  H  H698  1  0.77269634  0.51791139  0.09940581  1
  C  C699  1  0.96773662  0.54026925  0.29837666  1
  N  N700  1  0.86031660  0.63782703  0.04597092  1
  Cu  Cu701  1  0.80451068  0.81966933  0.23870601  1
  C  C702  1  0.89739225  0.88501704  0.19687121  1
  O  O703  1  0.90980252  0.93165117  0.23368698  1
  C  C704  1  0.92223273  0.88268958  0.12721572  1
  O  O705  1  0.87462603  0.83732708  0.22220658  1
  N  N706  1  0.95725733  0.96240904  0.35391248  1
  C  C707  1  0.95919090  0.92780592  0.11264410  1
  O  O708  1  0.93438662  0.54617947  0.24467126  1
  O  O709  1  0.98334785  0.58606419  0.33126840  1
  Cu  Cu710  1  0.86367463  0.52758645  0.23686379  1
  C  C711  1  0.93756388  0.50795015  0.08621583  1
  N  N712  1  0.82874295  0.98827287  0.40164746  1
  O  O713  1  0.85280070  0.50843484  0.33683113  1
  C  C714  1  0.83270660  0.95315665  0.02354633  1
  N  N715  1  0.78187728  0.98865434  0.22843862  1
  H  H716  1  0.90959577  0.81844015  0.48189995  1
  H  H717  1  0.77477379  0.63241545  0.00067397  1
  N  N718  1  0.93661188  0.71264263  0.70691136  1
  N  N719  1  0.91706177  0.68983040  0.76045446  1
  O  O720  1  0.90487644  0.69220705  0.62991926  1
  Cu  Cu721  1  0.85803094  0.63192186  0.73782226  1
  H  H722  1  0.82277654  0.86738522  0.70984702  1
  H  H723  1  0.78604612  0.92000550  0.80670173  1
  H  H724  1  0.92628372  0.97305529  0.89314856  1
  N  N725  1  0.90312056  0.56051979  0.74287795  1
  N  N726  1  0.94661897  0.95398158  0.74117704  1
  O  O727  1  0.95502469  0.75949862  0.57685348  1
  N  N728  1  0.97281807  0.94404921  0.57621921  1
  C  C729  1  0.80892051  0.57853901  0.91452105  1
  C  C730  1  0.90058769  0.98529508  0.93735777  1
  N  N731  1  0.97209007  0.57441245  0.59652304  1
  Cu  Cu732  1  0.93569381  0.59853649  0.82770465  1
  O  O733  1  0.88653606  0.75183593  0.97489525  1
  C  C734  1  0.91253807  0.73432431  0.58158151  1
  C  C735  1  0.91779578  0.79505318  0.95812694  1
  Cu  Cu736  1  0.93855019  0.57711894  0.96445362  1
  C  C737  1  0.77262029  0.58693707  0.96884569  1
  Cu  Cu738  1  0.86842345  0.67743553  0.94263292  1
  O  O739  1  0.85012751  0.61293270  0.89993722  1
  H  H740  1  0.75041187  0.70174009  0.91149593  1
  H  H741  1  0.81864649  0.59272722  0.52665131  1
  H  H742  1  0.81159704  0.67963042  0.58354401  1
  O  O743  1  0.93213668  0.79887994  0.89466647  1
  C  C744  1  0.80125316  0.54904808  0.51438737  1
  O  O745  1  0.76880764  0.73738585  0.93473713  1
  H  H746  1  0.86854493  0.88917634  0.94527445  1
  C  C747  1  0.75358644  0.92231351  0.68410324  1
  N  N748  1  0.94523230  0.65105083  0.91033175  1
  C  C749  1  0.84239217  0.93050835  0.62789827  1
  C  C750  1  0.83413265  0.50871277  0.81922962  1
  C  C751  1  0.76786315  0.52285425  0.56489577  1
  C  C752  1  0.81805240  0.71588008  0.54439455  1
  H  H753  1  0.98748853  0.88890509  0.94201501  1
  Cu  Cu754  1  0.95818158  0.73055946  0.84581683  1
  C  C755  1  0.86607909  0.74782786  0.53326637  1
  Cu  Cu756  1  0.87963316  0.55753297  0.63774811  1
  N  N757  1  0.88409791  0.94466063  0.78473669  1
  C  C758  1  0.79579653  0.52241784  0.87290184  1
  Cu  Cu759  1  0.97028716  0.53395605  0.69409951  1
  H  H760  1  0.88570028  0.91890953  0.62324882  1
  C  C761  1  0.80854209  0.90432670  0.67782423  1
  O  O762  1  0.79029751  0.60137316  0.64512013  1
  C  C763  1  0.86772748  0.93818583  0.96446882  1
  H  H764  1  0.81308630  0.83522789  0.96065807  1
  H  H765  1  0.77634621  0.80245835  0.70093233  1
  C  C766  1  0.76449011  0.55518516  0.63346474  1
  O  O767  1  0.78670673  0.70634043  0.76086771  1
  C  C768  1  0.86745411  0.99978777  0.80892669  1
  N  N769  1  0.96778510  0.54623256  0.54293397  1
  C  C770  1  0.82202078  0.98326352  0.58716228  1
  H  H771  1  0.95365160  0.96848863  0.61531803  1
  C  C772  1  0.77386399  0.95958107  0.84183618  1
  C  C773  1  0.97119135  0.88810117  0.99356249  1
  C  C774  1  0.78323599  0.85266349  0.99967459  1
  C  C775  1  0.77399165  0.73488328  0.50045998  1
