# generated using pymatgen
data_CuH12(C5N)3
_symmetry_space_group_name_H-M   'P 1'
_cell_length_a   23.15066175
_cell_length_b   19.52888846
_cell_length_c   20.11480681
_cell_angle_alpha   90.00000000
_cell_angle_beta   90.00000000
_cell_angle_gamma   90.00000000
_symmetry_Int_Tables_number   1
_chemical_formula_structural   CuH12(C5N)3
_chemical_formula_sum   'Cu32 H384 C480 N96'
_cell_volume   9094.03874948
_cell_formula_units_Z   32
loop_
 _symmetry_equiv_pos_site_id
 _symmetry_equiv_pos_as_xyz
  1  'x, y, z'
loop_
 _atom_site_type_symbol
 _atom_site_label
 _atom_site_symmetry_multiplicity
 _atom_site_fract_x
 _atom_site_fract_y
 _atom_site_fract_z
 _atom_site_occupancy
  H  H0  1  0.31495580  0.09473444  0.20817329  1
  H  H1  1  0.41005261  0.17838004  0.17787800  1
  H  H2  1  0.42336097  0.31384479  0.22708197  1
  C  C3  1  0.09920794  0.33020403  0.09282422  1
  H  H4  1  0.07860858  0.22466879  0.05348599  1
  C  C5  1  0.34432220  0.35267231  0.19345218  1
  N  N6  1  0.24459289  0.46898801  0.05605272  1
  C  C7  1  0.43715287  0.01871962  0.11069196  1
  C  C8  1  0.34539019  0.01064154  0.04964465  1
  C  C9  1  0.32660944  0.19970869  0.21438015  1
  C  C10  1  0.44564586  0.08264365  0.08069586  1
  H  H11  1  0.34261244  0.06669011  0.04757972  1
  C  C12  1  0.43850965  0.43977649  0.06077747  1
  C  C13  1  0.10680614  0.25674394  0.08871453  1
  C  C14  1  0.48448232  0.48481109  0.05021508  1
  C  C15  1  0.38544718  0.19471066  0.22232590  1
  C  C16  1  0.41139087  0.23098845  0.03294284  1
  N  N17  1  0.30857448  0.40115011  0.18185151  1
  C  C18  1  0.27547084  0.08086751  0.18008597  1
  C  C19  1  0.19799062  0.07069540  0.10130533  1
  C  C20  1  0.13430705  0.36620188  0.13972556  1
  H  H21  1  0.32744806  0.30816365  0.16103737  1
  H  H22  1  0.14601646  0.09333613  0.22911423  1
  H  H23  1  0.30762355  0.18733146  0.16485668  1
  C  C24  1  0.23255495  0.03513982  0.20308563  1
  N  N25  1  0.18290805  0.26328262  0.17905123  1
  H  H26  1  0.41592625  0.10624637  0.04458784  1
  H  H27  1  0.13298767  0.42107078  0.14070543  1
  C  C28  1  0.26300711  0.40614699  0.04328770  1
  N  N29  1  0.22710881  0.11408417  0.06755911  1
  H  H30  1  0.44167460  0.24707203  0.07011667  1
  H  H31  1  0.23882083  0.37283724  0.07571069  1
  H  H32  1  0.48846339  0.22165016  0.18671521  1
  C  C33  1  0.44134535  0.37986125  0.09755426  1
  C  C34  1  0.17518475  0.33178601  0.17893597  1
  C  C35  1  0.04873662  0.35961353  0.05480476  1
  C  C36  1  0.14746242  0.23387252  0.13377689  1
  C  C37  1  0.25719645  0.10745461  0.12012614  1
  N  N38  1  0.35969075  0.22508700  0.06138371  1
  C  C39  1  0.18770994  0.02749345  0.15339536  1
  H  H40  1  0.40638079  0.34272878  0.10650317  1
  H  H41  1  0.28803697  0.49441390  0.19723199  1
  H  H42  1  0.16287735  0.17889975  0.13834736  1
  C  C43  1  0.05737381  0.08634356  0.19028857  1
  C  C44  1  0.09972935  0.10448439  0.23786327  1
  C  C45  1  0.49850468  0.11595480  0.09552296  1
  H  H46  1  0.07354254  0.06326637  0.14545646  1
  H  H47  1  0.27506418  0.20128674  0.05013668  1
  N  N48  1  0.49038037  0.35870291  0.12876436  1
  C  C49  1  0.39557817  0.35953631  0.22769052  1
  C  C50  1  0.31695715  0.20603237  0.02360274  1
  C  C51  1  0.02110919  0.49708522  0.22662185  1
  C  C52  1  0.32375418  0.46080942  0.20895536  1
  H  H53  1  0.01802084  0.43828411  0.13108088  1
  C  C54  1  0.00924669  0.40843193  0.08359574  1
  H  H55  1  0.39615550  0.45202417  0.04223500  1
  H  H56  1  0.20473395  0.34612296  0.22019835  1
  Cu  Cu57  1  0.21066868  0.19997576  0.24873979  1
  H  H58  1  0.47992171  0.20882877  0.40301758  1
  Cu  Cu59  1  0.15973267  0.15654008  0.35537747  1
  C  C60  1  0.31073225  0.22574885  0.32348988  1
  C  C61  1  0.34659456  0.01049900  0.49513221  1
  H  H62  1  0.17179942  0.24814793  0.45704096  1
  C  C63  1  0.37143844  0.47579212  0.25089587  1
  C  C64  1  0.11144667  0.48246491  0.29925128  1
  C  C65  1  0.22613287  0.01578409  0.27411351  1
  H  H66  1  0.33838077  0.05830263  0.46456966  1
  C  C67  1  0.49432990  0.36844006  0.32446716  1
  C  C68  1  0.04579308  0.31353158  0.30529887  1
  Cu  Cu69  1  0.16221736  0.28692740  0.31442967  1
  C  C70  1  0.46312455  0.42800367  0.30215107  1
  H  H71  1  0.41397089  0.38396839  0.44206240  1
  C  C72  1  0.37069439  0.23130301  0.33452405  1
  H  H73  1  0.06373732  0.38296479  0.48213706  1
  H  H74  1  0.39020965  0.24382401  0.38331450  1
  C  C75  1  0.40342497  0.43057499  0.47111101  1
  H  H76  1  0.00170725  0.41254894  0.29316922  1
  C  C77  1  0.06741453  0.26679443  0.40214650  1
  C  C78  1  0.26487674  0.35739551  0.34557302  1
  C  C79  1  0.31646910  0.16047631  0.47807250  1
  H  H80  1  0.03802166  0.18569699  0.34637270  1
  Cu  Cu81  1  0.17004065  0.07970262  0.46008955  1
  H  H82  1  0.10774528  0.25625741  0.42909740  1
  N  N83  1  0.20930757  0.35506564  0.36756518  1
  C  C84  1  0.47525348  0.21172760  0.29472006  1
  H  H85  1  0.35454922  0.39053373  0.35600883  1
  N  N86  1  0.29069078  0.21288208  0.26458249  1
  H  H87  1  0.26495319  0.33072935  0.29539828  1
  C  C88  1  0.34611709  0.45658378  0.47278422  1
  C  C89  1  0.41072119  0.21449001  0.28458273  1
  N  N90  1  0.22502060  0.17410912  0.42316333  1
  C  C91  1  0.21354096  0.22465219  0.46802986  1
  C  C92  1  0.23886553  0.42228050  0.46277919  1
  C  C93  1  0.29551473  0.42402757  0.43706777  1
  H  H94  1  0.08372690  0.45409892  0.33289728  1
  C  C95  1  0.31008280  0.38738701  0.37654943  1
  C  C96  1  0.03854213  0.15331679  0.30237503  1
  H  H97  1  0.14830876  0.38078419  0.43547812  1
  C  C98  1  0.48431080  0.49143967  0.33236806  1
  H  H99  1  0.27790812  0.10100086  0.39281646  1
  H  H100  1  0.31656375  0.01782598  0.30900973  1
  H  H101  1  0.27688160  0.22914629  0.36094911  1
  C  C102  1  0.27447693  0.14033354  0.43211401  1
  C  C103  1  0.04299928  0.43015214  0.46506448  1
  N  N104  1  0.09626370  0.14029671  0.29487237  1
  N  N105  1  0.08593592  0.28771733  0.34492176  1
  C  C106  1  0.19862908  0.38330224  0.42602736  1
  C  C107  1  0.41233790  0.42180390  0.25765749  1
  H  H108  1  0.07095349  0.33694942  0.26241356  1
  H  H109  1  0.37787835  0.00750997  0.25322276  1
  H  H110  1  0.45945816  0.06652624  0.26724590  1
  C  C111  1  0.27249020  0.00746972  0.32186315  1
  H  H112  1  0.47935618  0.31939337  0.30993022  1
  H  H113  1  0.35903655  0.13993377  0.47729002  1
  H  H114  1  0.19121923  0.47397468  0.36074221  1
  C  C115  1  0.49686162  0.03729717  0.28270689  1
  C  C116  1  0.00845906  0.25454419  0.42025869  1
  H  H117  1  0.05643680  0.02781819  0.44971746  1
  C  C118  1  0.06820984  0.49447903  0.48091006  1
  C  C119  1  0.16683615  0.49723391  0.31805420  1
  H  H120  1  0.14555633  0.14785635  0.57041266  1
  Cu  Cu121  1  0.48194428  0.48725598  0.65178881  1
  H  H122  1  0.41260351  0.01762448  0.60805091  1
  C  C123  1  0.10569935  0.11313210  0.57077340  1
  H  H124  1  0.12932362  0.42288763  0.58991358  1
  H  H125  1  0.47782865  0.11770471  0.73089491  1
  N  N126  1  0.30628075  0.00201606  0.54422707  1
  C  C127  1  0.24418061  0.19023325  0.71404417  1
  C  C128  1  0.24922495  0.15263813  0.65470706  1
  N  N129  1  0.49530949  0.00002410  0.63302467  1
  H  H130  1  0.43358177  0.13679735  0.55911731  1
  H  H131  1  0.46420746  0.22590536  0.69264953  1
  H  H132  1  0.26177856  0.24183896  0.71576317  1
  C  C133  1  0.10075631  0.30706787  0.57554334  1
  H  H134  1  0.10992679  0.31862172  0.52081636  1
  Cu  Cu135  1  0.48258006  0.36460805  0.71168530  1
  H  H136  1  0.22007782  0.45922239  0.65414302  1
  C  C137  1  0.47026151  0.10818201  0.58234143  1
  H  H138  1  0.24043143  0.29174131  0.54605815  1
  N  N139  1  0.10341830  0.07920473  0.51450475  1
  C  C140  1  0.14850181  0.46906329  0.57415825  1
  C  C141  1  0.40043046  0.34163199  0.61464372  1
  C  C142  1  0.36472168  0.30935452  0.56802550  1
  H  H143  1  0.18834882  0.31803493  0.66036178  1
  C  C144  1  0.20810826  0.35472347  0.69719919  1
  C  C145  1  0.38594013  0.20652760  0.62717769  1
  Cu  Cu146  1  0.23913224  0.06122851  0.55074834  1
  C  C147  1  0.42755415  0.24405717  0.66350300  1
  C  C148  1  0.04387223  0.31328014  0.67413453  1
  C  C149  1  0.12315733  0.23724274  0.66288293  1
  C  C150  1  0.45775682  0.04431663  0.60641797  1
  C  C151  1  0.05626674  0.34096648  0.61022884  1
  N  N152  1  0.13679818  0.25917233  0.60172218  1
  H  H153  1  0.27233772  0.17018704  0.60752338  1
  H  H154  1  0.07696378  0.11942447  0.67774041  1
  C  C155  1  0.20048890  0.06206474  0.69306112  1
  N  N156  1  0.22866702  0.09175919  0.64160907  1
  N  N157  1  0.26270740  0.34403160  0.69684738  1
  N  N158  1  0.39408657  0.09506890  0.72869189  1
  H  H159  1  0.38378764  0.15132125  0.63076749  1
  H  H160  1  0.40770854  0.39896411  0.62154371  1
  H  H161  1  0.15437542  0.19797608  0.67312324  1
  C  C162  1  0.01207248  0.03653122  0.54818337  1
  C  C163  1  0.06894920  0.10312426  0.62629131  1
  C  C164  1  0.30894422  0.21717918  0.52190931  1
  C  C165  1  0.44209946  0.45123255  0.51986431  1
  H  H166  1  0.33785922  0.33933485  0.53374210  1
  N  N167  1  0.43298506  0.31106590  0.65812312  1
  N  N168  1  0.42977761  0.49257705  0.57137502  1
  C  C169  1  0.35386140  0.23815832  0.57511796  1
  C  C170  1  0.08115583  0.26478300  0.70493985  1
  C  C171  1  0.25304323  0.24774884  0.51449015  1
  C  C172  1  0.01985556  0.06275722  0.61318059  1
  H  H173  1  0.36416322  0.49146112  0.69772205  1
  H  H174  1  0.18686647  0.00836658  0.68308174  1
  H  H175  1  0.45764661  0.24893815  0.53669667  1
  H  H176  1  0.30608229  0.09476742  0.72179173  1
  C  C177  1  0.19801051  0.48776948  0.61117164  1
  H  H178  1  0.13044413  0.40500052  0.73225307  1
  C  C179  1  0.17595716  0.40036671  0.73919500  1
  C  C180  1  0.05638877  0.04409403  0.50210217  1
  H  H181  1  0.48471116  0.43330803  0.52320152  1
  H  H182  1  0.02659528  0.37552123  0.58572026  1
  C  C183  1  0.29273635  0.37914621  0.74179879  1
  H  H184  1  0.33844913  0.36370026  0.73859216  1
  H  H185  1  0.22242246  0.44677352  0.51173686  1
  H  H186  1  0.35610102  0.31241306  0.90053198  1
  C  C187  1  0.19706480  0.19577005  0.83311515  1
  C  C188  1  0.40744525  0.33970222  0.81503510  1
  H  H189  1  0.16519747  0.06563191  0.78811367  1
  C  C190  1  0.33550981  0.14495856  0.81359103  1
  H  H191  1  0.41772389  0.28725661  0.79519589  1
  C  C192  1  0.00918261  0.16439977  0.84696162  1
  C  C193  1  0.26785217  0.43068872  0.78219833  1
  C  C194  1  0.01185973  0.11244920  0.89712241  1
  C  C195  1  0.16642385  0.18979026  0.94801067  1
  H  H196  1  0.00932400  0.49302243  0.92382143  1
  C  C197  1  0.17481976  0.15681163  0.88751788  1
  C  C198  1  0.05605066  0.00584869  0.84904206  1
  H  H199  1  0.47190194  0.20435123  0.82784069  1
  H  H200  1  0.42051813  0.00176401  0.86565832  1
  C  C201  1  0.20791551  0.44032253  0.78467413  1
  C  C202  1  0.08994646  0.04269299  0.95756855  1
  H  H203  1  0.04663832  0.34264587  0.80318078  1
  H  H204  1  0.31695631  0.33243778  0.99016609  1
  H  H205  1  0.02790805  0.01254308  0.80571217  1
  C  C206  1  0.21169644  0.26550647  0.84709179  1
  H  H207  1  0.28184254  0.18102423  0.92888633  1
  H  H208  1  0.46382288  0.24230170  0.94627224  1
  H  H209  1  0.04307901  0.16539728  0.80633283  1
  C  C210  1  0.05104494  0.05050821  0.90386821  1
  C  C211  1  0.42161849  0.22289910  0.96488047  1
  C  C212  1  0.37472189  0.20417530  0.92102949  1
  H  H213  1  0.34458570  0.07933067  0.93170810  1
  C  C214  1  0.20341886  0.29226283  0.90980421  1
  C  C215  1  0.37613591  0.35421338  0.87162178  1
  C  C216  1  0.39128399  0.47215319  0.85426261  1
  N  N217  1  0.17715598  0.25609889  0.96007057  1
  C  C218  1  0.17842072  0.49438745  0.82844577  1
  N  N219  1  0.43442047  0.39016289  0.78323835  1
  C  C220  1  0.36510960  0.42297596  0.89375145  1
  C  C221  1  0.43253337  0.17172453  0.81426745  1
  H  H222  1  0.16698282  0.10382268  0.88322166  1
  C  C223  1  0.43082396  0.45292097  0.80409141  1
  C  C224  1  0.32979527  0.43744194  0.95446619  1
  H  H225  1  0.20432122  0.34594067  0.92639673  1
  H  H226  1  0.22326726  0.30259085  0.80781519  1
  C  C227  1  0.38184090  0.17626434  0.85318997  1
  H  H228  1  0.29515642  0.15034393  0.84067717  1
  C  C229  1  0.32057055  0.19600016  0.95531974  1
  H  H230  1  0.29317721  0.46475593  0.81641714  1
  H  H231  1  0.15734794  0.16406287  0.99627215  1
  C  C232  1  0.33240206  0.03767755  0.89624030  1
  C  C233  1  0.43689316  0.12861566  0.75776201  1
  C  C234  1  0.00432352  0.35106751  0.78404941  1
  C  C235  1  0.30521296  0.38811738  0.99574030  1
  N  N236  1  0.27696289  0.03017136  0.89134094  1
  H  H237  1  0.23540658  0.49627123  0.91433573  1
  H  H238  1  0.46192279  0.48247751  0.77828338  1
  H  H239  1  0.05591075  0.28613394  0.97074292  1
  C  C240  1  0.02899041  0.32510988  0.99604169  1
  H  H241  1  0.09074478  0.08083868  0.99708124  1
  C  C242  1  0.34141200  0.11404864  0.75299435  1
  C  C243  1  0.19127256  0.09315583  0.75188985  1
  H  H244  1  0.08245241  0.25457718  0.75764409  1
  C  C245  1  0.21128223  0.16254564  0.76856148  1
  H  H246  1  0.29437151  0.92772002  0.21257597  1
  H  H247  1  0.08885932  0.71451712  0.14709971  1
  N  N248  1  0.20152688  0.73559051  0.02810188  1
  H  H249  1  0.37996952  0.58259703  0.07506573  1
  N  N250  1  0.28909623  0.90909124  0.03641651  1
  H  H251  1  0.14906832  0.99243680  0.15814983  1
  H  H252  1  0.48216928  0.94304259  0.17428211  1
  H  H253  1  0.41434742  0.87175589  0.12680633  1
  H  H254  1  0.02494042  0.88765190  0.00039189  1
  H  H255  1  0.11092413  0.56748776  0.15276941  1
  H  H256  1  0.23432586  0.86391498  0.13705601  1
  C  C257  1  0.38490667  0.90090090  0.09438327  1
  C  C258  1  0.07326429  0.91226388  0.13022025  1
  C  C259  1  0.29436849  0.68200572  0.10437427  1
  H  H260  1  0.25831012  0.99637546  0.00502042  1
  H  H261  1  0.44819914  0.72681486  0.14291443  1
  H  H262  1  0.10019631  0.90102734  0.02170859  1
  C  C263  1  0.12557695  0.54373227  0.19812914  1
  N  N264  1  0.16339327  0.88212424  0.07833374  1
  H  H265  1  0.24543794  0.72818549  0.18439419  1
  C  C266  1  0.42788853  0.58151209  0.16617276  1
  C  C267  1  0.29776802  0.97600567  0.02817964  1
  C  C268  1  0.35072621  0.66714167  0.21809739  1
  C  C269  1  0.02424002  0.62858641  0.03139545  1
  C  C270  1  0.49169285  0.61579230  0.04813070  1
  C  C271  1  0.33255787  0.87598746  0.06645685  1
  H  H272  1  0.45952855  0.54532353  0.14844620  1
  C  C273  1  0.20240183  0.74159067  0.09270002  1
  C  C274  1  0.48309487  0.76031733  0.16261302  1
  N  N275  1  0.05674173  0.64862470  0.08289451  1
  C  C276  1  0.10948147  0.90173925  0.07492397  1
  H  H277  1  0.25392363  0.56459495  0.03952807  1
  C  C278  1  0.38100282  0.60283980  0.12603262  1
  C  C279  1  0.09906110  0.90071042  0.19380244  1
  N  N280  1  0.49700819  0.81043231  0.12241950  1
  H  H281  1  0.31801349  0.82508126  0.06951006  1
  C  C282  1  0.24858006  0.71947680  0.13075126  1
  C  C283  1  0.29152215  0.67831084  0.03364658  1
  H  H284  1  0.32502903  0.65618889  0.00200059  1
  C  C285  1  0.06064773  0.71214406  0.10161908  1
  H  H286  1  0.16174078  0.76516102  0.11107373  1
  C  C287  1  0.18916118  0.87743540  0.13772132  1
  H  H288  1  0.21772747  0.58046163  0.19252238  1
  C  C289  1  0.03068414  0.76399589  0.06697523  1
  C  C290  1  0.15757393  0.88064228  0.19692344  1
  C  C291  1  0.34194433  0.65139005  0.15033154  1
  C  C292  1  0.33580143  0.91004453  0.23483859  1
  C  C293  1  0.46716543  0.67561721  0.02283679  1
  C  C294  1  0.27096077  0.51645123  0.02017760  1
  N  N295  1  0.43922324  0.60145274  0.22823431  1
  H  H296  1  0.02971514  0.93092935  0.12335149  1
  C  C297  1  0.47765426  0.55221369  0.01411480  1
  C  C298  1  0.03995930  0.76191722  0.23413608  1
  H  H299  1  0.03494574  0.81827992  0.08202026  1
  C  C300  1  0.38837961  0.97328997  0.08623589  1
  Cu  Cu301  1  0.21332380  0.87012624  0.00566342  1
  C  C302  1  0.48410328  0.99458049  0.15060079  1
  C  C303  1  0.08601733  0.50924584  0.23920853  1
  H  H304  1  0.47413263  0.72852911  0.04229417  1
  H  H305  1  0.01723337  0.58709218  0.16417159  1
  H  H306  1  0.04216302  0.81298827  0.20906568  1
  H  H307  1  0.02142402  0.57335855  0.02951378  1
  N  N308  1  0.34306539  0.84259279  0.22790155  1
  C  C309  1  0.18290121  0.55354867  0.22026434  1
  H  H310  1  0.32044419  0.69935397  0.24345182  1
  H  H311  1  0.17933006  0.87768624  0.24603408  1
  H  H312  1  0.05894344  0.86626073  0.42248336  1
  H  H313  1  0.22978787  0.86733437  0.32694745  1
  H  H314  1  0.47773507  0.82632542  0.29654852  1
  N  N315  1  0.47433419  0.64428825  0.43154733  1
  H  H316  1  0.04320169  0.60366666  0.48650041  1
  N  N317  1  0.21136765  0.77402022  0.30332861  1
  H  H318  1  0.30856455  0.75950560  0.46496074  1
  C  C319  1  0.36488984  0.69269442  0.39508270  1
  C  C320  1  0.43599590  0.85287094  0.28241305  1
  C  C321  1  0.29983236  0.79533522  0.36537080  1
  H  H322  1  0.21892278  0.77001627  0.42628772  1
  C  C323  1  0.21803977  0.70759671  0.31135138  1
  C  C324  1  0.02795708  0.64340543  0.29946086  1
  H  H325  1  0.11010369  0.76633949  0.39792711  1
  C  C326  1  0.30790089  0.72412710  0.37064723  1
  H  H327  1  0.33085696  0.83312583  0.38431896  1
  H  H328  1  0.44564010  0.54986931  0.43084421  1
  C  C329  1  0.08007481  0.88412531  0.31812239  1
  H  H330  1  0.11848993  0.97277656  0.38659152  1
  H  H331  1  0.03214808  0.60119950  0.33657729  1
  C  C332  1  0.43568281  0.92449061  0.27715437  1
  H  H333  1  0.48853484  0.92655609  0.42465440  1
  H  H334  1  0.47010059  0.54332881  0.31542849  1
  C  C335  1  0.12980488  0.75382324  0.44538827  1
  H  H336  1  0.12026751  0.85562807  0.32115721  1
  C  C337  1  0.41306806  0.73576788  0.39718731  1
  H  H338  1  0.10818795  0.65218229  0.32809512  1
  C  C339  1  0.39891298  0.64259210  0.25412266  1
  H  H340  1  0.40456652  0.65618708  0.30484976  1
  H  H341  1  0.18869200  0.67713385  0.27971667  1
  N  N342  1  0.20338232  0.53085172  0.27780123  1
  C  C343  1  0.18658220  0.76173130  0.46353358  1
  C  C344  1  0.06291806  0.91348333  0.25502177  1
  C  C345  1  0.26738910  0.67874325  0.34363965  1
  H  H346  1  0.27531868  0.62438227  0.34522336  1
  H  H347  1  0.33588371  0.58924813  0.41380775  1
  C  C348  1  0.04717079  0.88890455  0.37511007  1
  C  C349  1  0.24856885  0.81570023  0.33287313  1
  H  H350  1  0.29163755  0.96703430  0.42229846  1
  N  N351  1  0.20504900  0.97332910  0.40919728  1
  C  C352  1  0.38906718  0.81589791  0.25673067  1
  C  C353  1  0.43007085  0.60136759  0.42136761  1
  N  N354  1  0.07919483  0.67305679  0.29478784  1
  C  C355  1  0.48948572  0.96417299  0.28993133  1
  C  C356  1  0.03417137  0.55227853  0.46412540  1
  H  H357  1  0.41133595  0.79016361  0.38228986  1
  C  C358  1  0.37270910  0.62355319  0.41024630  1
  C  C359  1  0.39483849  0.96787753  0.49330358  1
  H  H360  1  0.43173478  0.97835469  0.45779624  1
  C  C361  1  0.49576507  0.88453817  0.46064000  1
  C  C362  1  0.46711643  0.71056256  0.41684786  1
  C  C363  1  0.01117849  0.94822319  0.26242675  1
  H  H364  1  0.38073548  0.52679711  0.27104260  1
  H  H365  1  0.14865797  0.58691743  0.45710655  1
  C  C366  1  0.16111156  0.98098737  0.36460859  1
  H  H367  1  0.13369346  0.99742975  0.26280625  1
  C  C368  1  0.38159300  0.95269628  0.25622632  1
  H  H369  1  0.13257885  0.75131655  0.26907521  1
  C  C370  1  0.08795640  0.73266818  0.26070411  1
  C  C371  1  0.25986897  0.98217581  0.38396028  1
  H  H372  1  0.39076731  0.75999330  0.25016371  1
  C  C373  1  0.16894817  0.99712068  0.29647285  1
  N  N374  1  0.09014579  0.72783368  0.48545527  1
  H  H375  1  0.44498913  0.79900813  0.59400323  1
  H  H376  1  0.19279229  0.78971309  0.68172960  1
  N  N377  1  0.36896210  0.69810441  0.60759829  1
  C  C378  1  0.20007683  0.74655426  0.53172367  1
  N  N379  1  0.22673223  0.54477063  0.59480487  1
  H  H380  1  0.33073736  0.66961673  0.68861505  1
  C  C381  1  0.26000182  0.73629979  0.55857178  1
  C  C382  1  0.09617696  0.91954762  0.67820949  1
  C  C383  1  0.31151435  0.94304875  0.58162517  1
  C  C384  1  0.04738037  0.66802522  0.70543706  1
  C  C385  1  0.18725709  0.86985951  0.61026235  1
  H  H386  1  0.39977120  0.71735058  0.51157362  1
  H  H387  1  0.07118102  0.83658999  0.60058236  1
  C  C388  1  0.45888170  0.87296322  0.51754705  1
  H  H389  1  0.35665692  0.85477226  0.61447943  1
  H  H390  1  0.06070901  0.69248358  0.57013223  1
  H  H391  1  0.22435409  0.85192719  0.57798476  1
  H  H392  1  0.29733165  0.53959435  0.52528812  1
  H  H393  1  0.37432540  0.56468437  0.60692805  1
  H  H394  1  0.39945149  0.74371733  0.69267029  1
  C  C395  1  0.12397715  0.50552397  0.52237120  1
  C  C396  1  0.31095377  0.74130197  0.51768118  1
  C  C397  1  0.11572909  0.94918422  0.62005521  1
  N  N398  1  0.43253746  0.54832151  0.70709940  1
  H  H399  1  0.16129306  0.71153570  0.62933175  1
  H  H400  1  0.06028212  0.94702487  0.70416988  1
  C  C401  1  0.26242760  0.70525176  0.62266182  1
  C  C402  1  0.31930844  0.68889275  0.64057544  1
  N  N403  1  0.15926638  0.92208347  0.58837570  1
  C  C404  1  0.08468608  0.59558733  0.62974131  1
  C  C405  1  0.35849909  0.89880378  0.58104500  1
  H  H406  1  0.12564808  0.56946898  0.61386510  1
  H  H407  1  0.22564379  0.69384403  0.65576277  1
  C  C408  1  0.17055601  0.83724664  0.66979768  1
  C  C409  1  0.37693151  0.53790101  0.72697134  1
  C  C410  1  0.15575996  0.72287329  0.57536445  1
  C  C411  1  0.12118350  0.85865228  0.70431304  1
  N  N412  1  0.09440156  0.64198320  0.67719527  1
  C  C413  1  0.37259327  0.83860741  0.74619291  1
  C  C414  1  0.20814676  0.57834135  0.54242771  1
  H  H415  1  0.10052443  0.99991886  0.59964197  1
  C  C416  1  0.41068680  0.79035975  0.72038326  1
  C  C417  1  0.33751333  0.51068447  0.51995680  1
  C  C418  1  0.36183680  0.71697329  0.54419452  1
  C  C419  1  0.37824099  0.52543255  0.56781979  1
  C  C420  1  0.02922928  0.56943862  0.61467653  1
  C  C421  1  0.47178771  0.81599466  0.55568839  1
  H  H422  1  0.23896669  0.62130161  0.53715074  1
  H  H423  1  0.32492614  0.82933643  0.73350920  1
  H  H424  1  0.27207338  0.93808549  0.61068065  1
  H  H425  1  0.49726074  0.60811417  0.72507894  1
  N  N426  1  0.00482271  0.87340953  0.55129773  1
  C  C427  1  0.10118849  0.71383198  0.54698649  1
  H  H428  1  0.02037882  0.53601398  0.57359739  1
  N  N429  1  0.46849701  0.79972729  0.72019274  1
  C  C430  1  0.40280631  0.90868678  0.53238733  1
  C  C431  1  0.45290297  0.60687853  0.73683468  1
  C  C432  1  0.15948688  0.56074202  0.50448889  1
  H  H433  1  0.00220761  0.76189244  0.68290405  1
  C  C434  1  0.02316660  0.83730273  0.60397218  1
  Cu  Cu435  1  0.18338348  0.95901617  0.50421446  1
  H  H436  1  0.06705120  0.70562935  0.74003170  1
  C  C437  1  0.16545420  0.56508119  0.92993243  1
  C  C438  1  0.29065737  0.94064512  0.80774875  1
  C  C439  1  0.45327417  0.90530193  0.77982717  1
  Cu  Cu440  1  0.17512964  0.86216980  0.89365130  1
  C  C441  1  0.10343261  0.58184505  0.84718447  1
  C  C442  1  0.33910097  0.57679367  0.76621051  1
  C  C443  1  0.46634569  0.91524305  0.98029486  1
  C  C444  1  0.42154540  0.65261980  0.77533037  1
  C  C445  1  0.12923286  0.53088488  0.80653739  1
  N  N446  1  0.43037206  0.67803909  0.97144336  1
  C  C447  1  0.41893016  0.61952191  0.94029544  1
  C  C448  1  0.30521548  0.79627497  0.88411528  1
  C  C449  1  0.19552883  0.51681019  0.89310491  1
  C  C450  1  0.24188427  0.74440217  0.84712092  1
  N  N451  1  0.08092554  0.72732960  0.87089018  1
  C  C452  1  0.04159109  0.77362993  0.85299613  1
  C  C453  1  0.10273084  0.81612831  0.76367037  1
  H  H454  1  0.16017185  0.68872716  0.85923506  1
  C  C455  1  0.25883386  0.98348709  0.84797645  1
  C  C456  1  0.33062021  0.68853325  0.83405950  1
  C  C457  1  0.36241114  0.63650597  0.79621406  1
  H  H458  1  0.23473941  0.69615001  0.94644198  1
  C  C459  1  0.12925012  0.98991338  0.95327997  1
  N  N460  1  0.24394660  0.80055259  0.87704842  1
  H  H461  1  0.00063979  0.77351171  0.88587755  1
  C  C462  1  0.12948908  0.72614679  0.83779773  1
  C  C463  1  0.39247467  0.89787707  0.78085746  1
  H  H464  1  0.07043288  0.61900280  0.83698141  1
  H  H465  1  0.38896885  0.63739889  0.90285373  1
  C  C466  1  0.04963061  0.81731006  0.79949043  1
  H  H467  1  0.47351775  0.95337341  0.79742083  1
  H  H468  1  0.39410378  0.76539558  0.87465101  1
  N  N469  1  0.46675305  0.86392039  0.93669413  1
  C  C470  1  0.43964875  0.55394226  0.96064169  1
  H  H471  1  0.24211561  0.64846372  0.79437464  1
  C  C472  1  0.26818276  0.68979500  0.82150999  1
  H  H473  1  0.31671596  0.85101016  0.89796000  1
  C  C474  1  0.34820980  0.75109568  0.86582021  1
  N  N475  1  0.12069145  0.59822457  0.90736712  1
  N  N476  1  0.12794195  0.93931783  0.90787629  1
  H  H477  1  0.09945606  0.90636402  0.82515242  1
  Cu  Cu478  1  0.08060164  0.67041752  0.94549546  1
  H  H479  1  0.17605361  0.57893323  0.98419186  1
  C  C480  1  0.09234650  0.94888874  0.85752233  1
  H  H481  1  0.42066036  0.50662323  0.94379767  1
  H  H482  1  0.32547749  0.54453084  0.93656270  1
  H  H483  1  0.38157559  0.52591182  0.86069500  1
  H  H484  1  0.11623441  0.52842963  0.75352237  1
  C  C485  1  0.35205915  0.94765184  0.81452636  1
  H  H486  1  0.44265775  0.69862734  0.79353699  1
  H  H487  1  0.01422792  0.85590435  0.78875537  1
  C  C488  1  0.14610055  0.76703350  0.78154514  1
  Cu  Cu489  1  0.14047909  0.77106461  0.97656681  1
  C  C490  1  0.31208365  0.50615437  0.96860994  1
  H  H491  1  0.29371737  0.56019238  0.77766091  1
  H  H492  1  0.20977552  0.98973457  0.84934277  1
  H  H493  1  0.41875592  0.92720273  0.99217980  1
  C  C494  1  0.24370079  0.70277028  0.99882959  1
  C  C495  1  0.37317206  0.99792234  0.85821143  1
  H  H496  1  0.16194141  0.98100003  0.99090675  1
  H  H497  1  0.27141747  0.90657326  0.77094456  1
  H  H498  1  0.18898653  0.76232713  0.75911983  1
  C  C499  1  0.48893592  0.85219780  0.75469004  1
  N  N500  1  0.80430163  0.41953985  0.03144642  1
  N  N501  1  0.90291090  0.47928621  0.18800024  1
  H  H502  1  0.73447738  0.03753959  0.20428545  1
  C  C503  1  0.84412484  0.08538936  0.14315204  1
  H  H504  1  0.58985011  0.07538631  0.03260891  1
  C  C505  1  0.62913570  0.04479357  0.01719957  1
  C  C506  1  0.79915303  0.48940499  0.03519544  1
  H  H507  1  0.57351294  0.37279388  0.13783280  1
  H  H508  1  0.99513685  0.00859115  0.09747643  1
  Cu  Cu509  1  0.79474376  0.11573840  0.01523523  1
  H  H510  1  0.51459879  0.16478401  0.07480443  1
  N  N511  1  0.54326577  0.09260017  0.12988726  1
  H  H512  1  0.68818949  0.38605011  0.13182489  1
  H  H513  1  0.80022724  0.10754761  0.14400121  1
  H  H514  1  0.61905169  0.09335024  0.22265035  1
  C  C515  1  0.68434325  0.15033468  0.15639528  1
  H  H516  1  0.88967268  0.24970163  0.01798149  1
  H  H517  1  0.52209238  0.28493978  0.04955911  1
  C  C518  1  0.94709885  0.08268842  0.15840634  1
  C  C519  1  0.76421706  0.41816910  0.23663474  1
  H  H520  1  0.65735599  0.14488743  0.11074762  1
  C  C521  1  0.55717889  0.27845221  0.01155693  1
  C  C522  1  0.76369629  0.21523251  0.09852525  1
  C  C523  1  0.82409181  0.22997742  0.09117528  1
  H  H524  1  0.68092441  0.22906746  0.03976514  1
  C  C525  1  0.71748649  0.41878150  0.10118259  1
  C  C526  1  0.62299029  0.48665711  0.18629234  1
  C  C527  1  0.71065497  0.49018209  0.10471449  1
  C  C528  1  0.84472404  0.24579768  0.02934782  1
  H  H529  1  0.76806544  0.33315748  0.04934819  1
  H  H530  1  0.85720806  0.22064123  0.13035404  1
  H  H531  1  0.91992807  0.45375528  0.07523581  1
  C  C532  1  0.53411828  0.03308010  0.15987700  1
  C  C533  1  0.72917227  0.23235976  0.04324119  1
  H  H534  1  0.59843821  0.22630987  0.20365632  1
  C  C535  1  0.99825657  0.10062999  0.20369733  1
  C  C536  1  0.53515425  0.46149418  0.08168388  1
  C  C537  1  0.75810118  0.38933462  0.05804897  1
  C  C538  1  0.73859874  0.18307480  0.15919867  1
  H  H539  1  0.80800263  0.42440096  0.21594780  1
  C  C540  1  0.89242373  0.11207492  0.17593713  1
  H  H541  1  0.69753748  0.12425138  0.02944502  1
  H  H542  1  0.57214718  0.01670101  0.19091683  1
  C  C543  1  0.95608604  0.41942134  0.05533581  1
  H  H544  1  0.89183450  0.15565616  0.21010006  1
  C  C545  1  0.53575282  0.39958863  0.11809230  1
  H  H546  1  0.63109277  0.43479575  0.19840171  1
  C  C547  1  0.68472709  0.07138111  0.01101832  1
  C  C548  1  0.50874920  0.22038473  0.23468709  1
  C  C549  1  0.95289412  0.02956559  0.11009966  1
  C  C550  1  0.66168015  0.11921543  0.21403739  1
  H  H551  1  0.76794146  0.30574566  0.21846201  1
  C  C552  1  0.76868819  0.17883836  0.22100685  1
  C  C553  1  0.56868846  0.22706249  0.24449464  1
  N  N554  1  0.93553274  0.37835572  0.00826834  1
  N  N555  1  0.84959349  0.02977253  0.10657904  1
  H  H556  1  0.81377564  0.20030654  0.22808908  1
  C  C557  1  0.89938836  0.00375371  0.08952581  1
  Cu  Cu558  1  0.77746028  0.00012483  0.07749687  1
  H  H559  1  0.57609611  0.49320061  0.08169144  1
  H  H560  1  0.84455299  0.02761756  0.24936583  1
  C  C561  1  0.74251563  0.35114651  0.23779883  1
  C  C562  1  0.92656727  0.44327701  0.23721150  1
  H  H563  1  0.59375314  0.37961406  0.00769502  1
  C  C564  1  0.96419591  0.27771743  0.37816004  1
  H  H565  1  0.60600724  0.08046441  0.42371485  1
  C  C566  1  0.81421695  0.00972413  0.43463137  1
  N  N567  1  0.67728301  0.09561264  0.46195213  1
  H  H568  1  0.88517480  0.37929262  0.34475950  1
  C  C569  1  0.98626939  0.30993082  0.31808574  1
  H  H570  1  0.55724686  0.32756559  0.40162805  1
  C  C571  1  0.62842178  0.05685793  0.46500728  1
  C  C572  1  0.86669433  0.33226177  0.36740442  1
  H  H573  1  0.59368821  0.22982157  0.39840234  1
  Cu  Cu574  1  0.60777436  0.42185694  0.47534259  1
  H  H575  1  0.56040727  0.12296468  0.30373796  1
  C  C576  1  0.86570445  0.05534690  0.34649906  1
  H  H577  1  0.77845544  0.37076690  0.35000439  1
  Cu  Cu578  1  0.69482216  0.17196411  0.40732731  1
  C  C579  1  0.53666255  0.37176377  0.37417293  1
  Cu  Cu580  1  0.66992861  0.06890143  0.34548060  1
  N  N581  1  0.85853017  0.04667129  0.41235043  1
  H  H582  1  0.77876279  0.19659375  0.45483737  1
  Cu  Cu583  1  0.69569511  0.29733343  0.40061805  1
  C  C584  1  0.80666787  0.23151211  0.42872391  1
  C  C585  1  0.74280446  0.14414592  0.27484063  1
  Cu  Cu586  1  0.67897288  0.23510441  0.29281469  1
  C  C587  1  0.86683828  0.22748988  0.42644994  1
  N  N588  1  0.77700410  0.28365539  0.40736937  1
  H  H589  1  0.62214598  0.36801925  0.31166456  1
  H  H590  1  0.94933106  0.15308041  0.28222378  1
  C  C591  1  0.54979434  0.06818822  0.30336173  1
  H  H592  1  0.65082779  0.49645526  0.30797924  1
  N  N593  1  0.96280257  0.48315295  0.40374416  1
  N  N594  1  0.69470154  0.33210666  0.27172185  1
  H  H595  1  0.51474355  0.36361913  0.49466698  1
  C  C596  1  0.67922140  0.45454724  0.29044397  1
  C  C597  1  0.80488838  0.33141380  0.37305502  1
  H  H598  1  0.95760792  0.33096761  0.27952658  1
  N  N599  1  0.55512802  0.42836350  0.40109585  1
  H  H600  1  0.88867567  0.18329231  0.45045931  1
  Cu  Cu601  1  0.70955228  0.40788888  0.46243438  1
  C  C602  1  0.56482443  0.22711283  0.35390567  1
  H  H603  1  0.75885009  0.13539500  0.32556699  1
  C  C604  1  0.90024398  0.27767301  0.39243098  1
  H  H605  1  0.81526741  0.00321012  0.49088900  1
  C  C606  1  0.66339485  0.38646504  0.29191355  1
  H  H607  1  0.90616785  0.08560203  0.34193196  1
  N  N608  1  0.69050473  0.11820917  0.27163297  1
  N  N609  1  0.59716166  0.23125403  0.30157475  1
  C  C610  1  0.99003787  0.13765287  0.26274274  1
  C  C611  1  0.50475198  0.21361615  0.35534844  1
  C  C612  1  0.73221764  0.47552972  0.25940095  1
  N  N613  1  0.76886147  0.47662985  0.45621939  1
  C  C614  1  0.82884817  0.02281034  0.30079600  1
  C  C615  1  0.99054434  0.42919254  0.42898949  1
  C  C616  1  0.52970806  0.48416868  0.37654170  1
  N  N617  1  0.59607554  0.03455044  0.32329731  1
  H  H618  1  0.99909826  0.23331145  0.46984963  1
  H  H619  1  0.96897122  0.37984883  0.41201939  1
  H  H620  1  0.89582612  0.40439882  0.25086600  1
  C  C621  1  0.98414535  0.44762938  0.25725455  1
  H  H622  1  0.54883707  0.49637342  0.25068585  1
  C  C623  1  0.58815071  0.29797623  0.67984589  1
  H  H624  1  0.61479050  0.10199753  0.60525355  1
  C  C625  1  0.54977135  0.02409926  0.63258337  1
  C  C626  1  0.77554220  0.10173678  0.66014266  1
  H  H627  1  0.77033515  0.19324409  0.59414272  1
  N  N628  1  0.83954996  0.13831842  0.57380975  1
  H  H629  1  0.91681163  0.09090284  0.55833161  1
  C  C630  1  0.85902217  0.04118082  0.63757007  1
  C  C631  1  0.71416298  0.34093033  0.65680327  1
  C  C632  1  0.80067005  0.29869314  0.61066931  1
  Cu  Cu633  1  0.57748445  0.47536115  0.58822868  1
  H  H634  1  0.59016529  0.31434690  0.62844052  1
  N  N635  1  0.59122879  0.32764002  0.50651258  1
  H  H636  1  0.58640244  0.19376245  0.65245385  1
  H  H637  1  0.73394475  0.11481167  0.68259252  1
  N  N638  1  0.58454733  0.34700419  0.72752614  1
  C  C639  1  0.76739632  0.24340237  0.72077304  1
  H  H640  1  0.82884106  0.42222646  0.62315089  1
  C  C641  1  0.70689129  0.02012480  0.55373075  1
  H  H642  1  0.68310059  0.34428620  0.69842991  1
  C  C643  1  0.87606922  0.08849243  0.58832032  1
  C  C644  1  0.71315239  0.07282624  0.50705190  1
  N  N645  1  0.73811908  0.36805020  0.54359803  1
  C  C646  1  0.79374730  0.14785296  0.61135364  1
  C  C647  1  0.96625703  0.08434625  0.72072341  1
  C  C648  1  0.58801840  0.22842203  0.69474470  1
  H  H649  1  0.92894552  0.33548404  0.63912559  1
  C  C650  1  0.61816411  0.08363114  0.74203429  1
  C  C651  1  0.80849707  0.04366725  0.67528634  1
  C  C652  1  0.84827382  0.47371598  0.63701978  1
  C  C653  1  0.78535732  0.33372517  0.55159237  1
  H  H654  1  0.74211751  0.00630400  0.58904550  1
  H  H655  1  0.67140498  0.41298455  0.58087825  1
  H  H656  1  0.63430777  0.16689690  0.54793791  1
  C  C657  1  0.93693500  0.34778828  0.69232168  1
  H  H658  1  0.83849846  0.26213367  0.61129396  1
  C  C659  1  0.60574886  0.20967370  0.53718539  1
  H  H660  1  0.94220911  0.46234181  0.61008713  1
  C  C661  1  0.70767748  0.37925722  0.59679134  1
  C  C662  1  0.52866422  0.13257485  0.58095321  1
  C  C663  1  0.56846046  0.08731526  0.60985441  1
  C  C664  1  0.75985416  0.29279071  0.66418926  1
  C  C665  1  0.90617304  0.49800463  0.62628840  1
  Cu  Cu666  1  0.58032081  0.44348063  0.70714819  1
  H  H667  1  0.86367531  0.23670501  0.73136684  1
  H  H668  1  0.98007815  0.13714388  0.71002608  1
  H  H669  1  0.67677252  0.23246867  0.73526130  1
  C  C670  1  0.54559537  0.19846223  0.54982113  1
  H  H671  1  0.81012036  0.32993618  0.50249486  1
  H  H672  1  0.63835053  0.10360656  0.69575642  1
  C  C673  1  0.62725167  0.27388827  0.51755473  1
  C  C674  1  0.98625552  0.03671114  0.67312526  1
  H  H675  1  0.75535422  0.10571135  0.50403800  1
  H  H676  1  0.67280831  0.28643710  0.50855718  1
  H  H677  1  0.80439380  0.44463866  0.53679735  1
  C  C678  1  0.50761053  0.25375215  0.53079606  1
  C  C679  1  0.82056591  0.21835344  0.74564865  1
  C  C680  1  0.53329219  0.31343574  0.51164921  1
  C  C681  1  0.99384783  0.33985240  0.71573712  1
  H  H682  1  0.97131875  0.01258628  0.53427458  1
  C  C683  1  0.80915496  0.48537322  0.50091630  1
  C  C684  1  0.61327984  0.00454253  0.50826161  1
  H  H685  1  0.69996289  0.49877837  0.60297127  1
  H  H686  1  0.84795628  0.36404680  0.73322105  1
  C  C687  1  0.89421138  0.36147470  0.74112117  1
  C  C688  1  0.72004825  0.16663728  0.80405359  1
  C  C689  1  0.56262626  0.03459943  0.84820121  1
  H  H690  1  0.68395038  0.30357746  0.81607542  1
  C  C691  1  0.81645560  0.17002366  0.79645695  1
  C  C692  1  0.72980302  0.46414300  0.90463098  1
  H  H693  1  0.74415934  0.39360780  0.75707239  1
  C  C694  1  0.68125285  0.35281507  0.90825515  1
  C  C695  1  0.96086697  0.20706910  0.84587184  1
  C  C696  1  0.63985070  0.30408342  0.94554304  1
  H  H697  1  0.57116065  0.24581999  0.86100930  1
  C  C698  1  0.74159809  0.00799645  0.76973889  1
  C  C699  1  0.92505619  0.16539277  0.94353153  1
  H  H700  1  0.68016076  0.42119425  0.98725717  1
  H  H701  1  0.94735792  0.24600894  0.80797142  1
  N  N702  1  0.78494094  0.02549507  0.97834339  1
  N  N703  1  0.81300056  0.24912331  0.97324804  1
  H  H704  1  0.85229594  0.15073785  0.82302613  1
  H  H705  1  0.58668455  0.36930475  0.82633698  1
  N  N706  1  0.91720426  0.20631718  0.89046243  1
  Cu  Cu707  1  0.83971195  0.38841830  0.85720998  1
  Cu  Cu708  1  0.78031517  0.07640491  0.88833295  1
  H  H709  1  0.88807342  0.17526221  0.97585230  1
  H  H710  1  0.71765001  0.05591742  0.76082634  1
  Cu  Cu711  1  0.86956375  0.04932346  0.96842152  1
  Cu  Cu712  1  0.85110142  0.26819666  0.88738920  1
  C  C713  1  0.96914902  0.11659771  0.94858924  1
  C  C714  1  0.95852849  0.37139835  0.82626649  1
  C  C715  1  0.55612042  0.10571859  0.83728010  1
  C  C716  1  0.58617710  0.13113197  0.78053144  1
  C  C717  1  0.71803493  0.21435189  0.75373297  1
  C  C718  1  0.69925596  0.34845485  0.84188219  1
  C  C719  1  0.69761497  0.41526939  0.93781525  1
  H  H720  1  0.92047849  0.09943457  0.81872658  1
  H  H721  1  0.67993479  0.14189399  0.82580660  1
  C  C722  1  0.64173004  0.23323567  0.92942769  1
  C  C723  1  0.57376786  0.25873692  0.80920763  1
  N  N724  1  0.90524692  0.37197922  0.80491840  1
  H  H725  1  0.67563739  0.21121800  0.89538896  1
  N  N726  1  0.77056642  0.14440815  0.82700910  1
  H  H727  1  0.54108082  0.00363648  0.89020872  1
  Cu  Cu728  1  0.85924900  0.36856110  0.97247770  1
  C  C729  1  0.58117843  0.32665062  0.79002296  1
  H  H730  1  0.94985106  0.31104968  0.93644482  1
  H  H731  1  0.52945974  0.13674842  0.87190444  1
  N  N732  1  0.74986056  0.45329841  0.84352531  1
  H  H733  1  0.72989012  0.26145663  0.93689145  1
  H  H734  1  0.96406097  0.38324994  0.88088380  1
  C  C735  1  0.60091415  0.18879212  0.95360674  1
  C  C736  1  0.73271590  0.39979000  0.81085502  1
  C  C737  1  0.97186791  0.33868233  0.97752655  1
  N  N738  1  0.91630353  0.00399107  0.78618960  1
  H  H739  1  0.59490876  0.13468676  0.94704163  1
  C  C740  1  0.57928955  0.20587207  0.76213164  1
  C  C741  1  0.62068837  0.01537000  0.75940639  1
  C  C742  1  0.93329760  0.06739691  0.77570781  1
  C  C743  1  0.75506921  0.24936262  0.98287042  1
  N  N744  1  0.55772712  0.21196591  0.99076033  1
  C  C745  1  0.59905400  0.32746974  0.99213761  1
  H  H746  1  0.97258404  0.08261226  0.99311449  1
  C  C747  1  0.72268244  0.01958608  0.98762721  1
  H  H748  1  0.89885246  0.95671326  0.06054135  1
  Cu  Cu749  1  0.67072642  0.83748438  0.07151996  1
  N  N750  1  0.56986252  0.58994157  0.21400109  1
  N  N751  1  0.84653790  0.82265527  0.12447940  1
  H  H752  1  0.87173467  0.77496989  0.03892395  1
  C  C753  1  0.85107387  0.84070280  0.18601106  1
  C  C754  1  0.92749767  0.75120067  0.12891275  1
  H  H755  1  0.69913415  0.79083972  0.20953006  1
  C  C756  1  0.80524600  0.57157476  0.24077460  1
  N  N757  1  0.69864202  0.87915674  0.15519800  1
  H  H758  1  0.55698662  0.87986892  0.09617498  1
  C  C759  1  0.85163437  0.64333932  0.02178513  1
  H  H760  1  0.99062742  0.97634462  0.21994126  1
  H  H761  1  0.58129027  0.76731593  0.04768546  1
  C  C762  1  0.54475463  0.84621804  0.13712992  1
  N  N763  1  0.76386370  0.69481363  0.05380532  1
  H  H764  1  0.89570224  0.62875653  0.03486577  1
  C  C765  1  0.75460348  0.52507768  0.06864263  1
  C  C766  1  0.81608504  0.67732979  0.06739130  1
  C  C767  1  0.88363953  0.78233329  0.09322059  1
  C  C768  1  0.81878823  0.64217756  0.23279079  1
  C  C769  1  0.60116655  0.62076097  0.16552338  1
  Cu  Cu770  1  0.78190081  0.85373772  0.07687303  1
  C  C771  1  0.89678954  0.81516839  0.22457044  1
  C  C772  1  0.71428121  0.84505281  0.21200735  1
  C  C773  1  0.99645349  0.74571206  0.01254478  1
  C  C774  1  0.57614538  0.52214255  0.21496636  1
  C  C775  1  0.57761885  0.83149047  0.19357911  1
  H  H776  1  0.81018548  0.87063491  0.20741144  1
  H  H777  1  0.61448843  0.86654349  0.19827351  1
  C  C778  1  0.93541557  0.76584299  0.19849954  1
  H  H779  1  0.90764414  0.55904001  0.12876363  1
  C  C780  1  0.64757974  0.59210352  0.13048146  1
  H  H781  1  0.95660725  0.71158419  0.10790701  1
  H  H782  1  0.68783720  0.96724890  0.11078302  1
  Cu  Cu783  1  0.72952599  0.74741074  0.11632390  1
  C  C784  1  0.99449439  0.53889959  0.17761665  1
  H  H785  1  0.82691983  0.70140832  0.11437620  1
  C  C786  1  0.70401016  0.94774995  0.15703311  1
  C  C787  1  0.93512099  0.52782119  0.16312998  1
  H  H788  1  0.67238796  0.62291475  0.09417249  1
  C  C789  1  0.72937587  0.98352703  0.20790112  1
  H  H790  1  0.58569959  0.67259385  0.16142192  1
  H  H791  1  0.51560113  0.98788386  0.03500746  1
  C  C792  1  0.66007708  0.52196730  0.14219138  1
  H  H793  1  0.50455509  0.69605840  0.24800379  1
  H  H794  1  0.76413704  0.58004525  0.07769083  1
  H  H795  1  0.83863256  0.52982772  0.23647257  1
  N  N796  1  0.77966903  0.69111797  0.24415369  1
  C  C797  1  0.51583821  0.73781431  0.21698659  1
  H  H798  1  0.85910296  0.66580790  0.21695901  1
  H  H799  1  0.51499649  0.60995863  0.09445521  1
  C  C800  1  0.56393950  0.77676379  0.23836555  1
  H  H801  1  0.92973345  0.55510279  0.00256788  1
  H  H802  1  0.83806335  0.50898621  0.01358827  1
  C  C803  1  0.98565420  0.72739629  0.23254280  1
  H  H804  1  0.97231359  0.80284889  0.41938360  1
  C  C805  1  0.54289911  0.84144419  0.45573448  1
  H  H806  1  0.85893272  0.67028262  0.33074003  1
  C  C807  1  0.71002285  0.60465828  0.26937329  1
  C  C808  1  0.77553018  0.97435552  0.39335034  1
  N  N809  1  0.99577759  0.91925762  0.37624980  1
  C  C810  1  0.62528809  0.67893871  0.39007751  1
  H  H811  1  0.54015070  0.87531129  0.32668840  1
  H  H812  1  0.62876653  0.94858235  0.35365251  1
  H  H813  1  0.70099214  0.72134205  0.27883474  1
  C  C814  1  0.80598935  0.56549446  0.38957857  1
  C  C815  1  0.76477205  0.51543845  0.40250564  1
  N  N816  1  0.94658454  0.76199148  0.42710012  1
  C  C817  1  0.97558439  0.94628245  0.32051424  1
  C  C818  1  0.98441538  0.54268528  0.42564152  1
  C  C819  1  0.59421835  0.69178625  0.33206768  1
  C  C820  1  0.78333495  0.97995552  0.32281791  1
  H  H821  1  0.63262647  0.63298900  0.42022396  1
  H  H822  1  0.89919585  0.83460927  0.27683912  1
  C  C823  1  0.59838688  0.75691260  0.29959212  1
  C  C824  1  0.84641320  0.57782202  0.44223480  1
  C  C825  1  0.82230158  0.78409528  0.49657956  1
  C  C826  1  0.67180992  0.78659362  0.38273912  1
  H  H827  1  0.74210127  0.94212622  0.41435089  1
  C  C828  1  0.91632059  0.74606420  0.37182904  1
  H  H829  1  0.92431046  0.77622985  0.32700934  1
  H  H830  1  0.66508267  0.59478861  0.27596756  1
  C  C831  1  0.53902877  0.93286837  0.31355100  1
  H  H832  1  0.68573133  0.72477120  0.45671544  1
  N  N833  1  0.66417888  0.72641568  0.40958148  1
  H  H834  1  0.95505439  0.58100205  0.40232098  1
  H  H835  1  0.74506750  0.84755516  0.31488684  1
  C  C836  1  0.97686619  0.66687462  0.26869403  1
  C  C837  1  0.75077702  0.94776276  0.26677310  1
  H  H838  1  0.57105566  0.64978235  0.30993119  1
  H  H839  1  0.64268446  0.85254562  0.30114176  1
  C  C840  1  0.74913021  0.55128205  0.25906647  1
  C  C841  1  0.88231909  0.68594702  0.37672295  1
  H  H842  1  0.70570886  0.81896902  0.41239680  1
  C  C843  1  0.88109541  0.64339414  0.43492073  1
  C  C844  1  0.58861790  0.96944221  0.33218885  1
  H  H845  1  0.57777667  0.84289509  0.41754443  1
  H  H846  1  0.80741956  0.60001933  0.34650985  1
  C  C847  1  0.63778473  0.80303314  0.32678622  1
  H  H848  1  0.72459149  0.50458010  0.37573631  1
  H  H849  1  0.55127831  0.52741136  0.40420184  1
  C  C850  1  0.73511507  0.87749097  0.26679153  1
  H  H851  1  0.86745088  0.78856343  0.47503259  1
  H  H852  1  0.50990213  0.73707857  0.41674254  1
  C  C853  1  0.72688302  0.67420115  0.26706610  1
  H  H854  1  0.93572776  0.63993308  0.27034872  1
  H  H855  1  0.93219833  0.96869834  0.32965967  1
  C  C856  1  0.94687808  0.72775111  0.48478717  1
  C  C857  1  0.91624631  0.66663949  0.48973838  1
  N  N858  1  0.55794068  0.79041935  0.49568812  1
  H  H859  1  0.87906466  0.54836932  0.54193384  1
  H  H860  1  0.91747659  0.63944011  0.53598072  1
  H  H861  1  0.61822665  0.71980872  0.54556114  1
  C  C862  1  0.91818568  0.56530214  0.64886582  1
  H  H863  1  0.77189301  0.59997559  0.58178921  1
  C  C864  1  0.68228799  0.86569290  0.70295379  1
  C  C865  1  0.59762050  0.83245807  0.66160978  1
  H  H866  1  0.55878118  0.80026685  0.67079283  1
  C  C867  1  0.79065608  0.72482132  0.51252692  1
  H  H868  1  0.72764749  0.94498875  0.65381791  1
  C  C869  1  0.99080273  0.64431560  0.69849568  1
  H  H870  1  0.88869575  0.99611456  0.64912191  1
  H  H871  1  0.95578757  0.65930594  0.73489816  1
  C  C872  1  0.68816821  0.91518443  0.65450753  1
  H  H873  1  0.73911707  0.73185279  0.69832027  1
  C  C874  1  0.81913603  0.57150161  0.68651173  1
  C  C875  1  0.52185079  0.77515725  0.54419570  1
  H  H876  1  0.80636030  0.67300630  0.50680968  1
  H  H877  1  0.84658838  0.90633689  0.70042451  1
  N  N878  1  0.63696486  0.82769915  0.70932583  1
  H  H879  1  0.57981086  0.98852290  0.65969606  1
  C  C880  1  0.82415824  0.77649122  0.67463076  1
  C  C881  1  0.88384822  0.78465745  0.69362824  1
  C  C882  1  0.94742993  0.88925616  0.54987912  1
  C  C883  1  0.92712901  0.81731655  0.64696195  1
  C  C884  1  0.64160459  0.67270392  0.55898080  1
  C  C885  1  0.64500482  0.92505131  0.60523004  1
  C  C886  1  0.81149949  0.92324019  0.73470096  1
  H  H887  1  0.63281419  0.58227966  0.69363726  1
  H  H888  1  0.53657979  0.85484352  0.74546208  1
  C  C889  1  0.70259386  0.67101649  0.56492303  1
  C  C890  1  0.71028106  0.79891568  0.54811740  1
  C  C891  1  0.68716680  0.55094586  0.58887312  1
  C  C892  1  0.85086637  0.53775545  0.50062810  1
  H  H893  1  0.53496824  0.72532883  0.56645929  1
  C  C894  1  0.87058926  0.60398605  0.67211878  1
  C  C895  1  0.78676329  0.98964102  0.72473047  1
  C  C896  1  0.59821104  0.87710119  0.60731766  1
  H  H897  1  0.66934389  0.81070843  0.57035527  1
  C  C898  1  0.78416751  0.74269964  0.71443521  1
  H  H899  1  0.56289792  0.87526259  0.57102234  1
  C  C900  1  0.73703807  0.73428241  0.54412609  1
  H  H901  1  0.97272206  0.75244722  0.52546436  1
  C  C902  1  0.98035284  0.59118270  0.65125268  1
  C  C903  1  0.60968554  0.61104570  0.56998653  1
  H  H904  1  0.81119059  0.79058373  0.62566852  1
  C  C905  1  0.90724333  0.86138802  0.59551318  1
  N  N906  1  0.63118876  0.54829978  0.57787079  1
  H  H907  1  0.56182844  0.61378943  0.56422849  1
  H  H908  1  0.86046970  0.87624121  0.59594069  1
  C  C909  1  0.72521950  0.60705621  0.57999965  1
  H  H910  1  0.78020819  0.59367080  0.71269535  1
  C  C911  1  0.74769104  0.85161698  0.52476159  1
  C  C912  1  0.98713971  0.80133561  0.64962512  1
  H  H913  1  0.93772581  0.92314324  0.50844998  1
  H  H914  1  0.87606649  0.65980211  0.68600192  1
  C  C915  1  0.65415587  0.98459764  0.55719551  1
  C  C916  1  0.93650670  0.95604407  0.74803270  1
  C  C917  1  0.97186547  0.96733995  0.69245642  1
  H  H918  1  0.98755905  0.92299621  0.66499436  1
  C  C919  1  0.61206943  0.58863297  0.74385897  1
  H  H920  1  0.73619007  0.90757854  0.51622053  1
  N  N921  1  0.80281533  0.84852956  0.50622501  1
  H  H922  1  0.64523204  0.97436527  0.73270283  1
  N  N923  1  0.80744999  0.50740018  0.67005523  1
  H  H924  1  0.56890335  0.97939393  0.50470041  1
  C  C925  1  0.55805922  0.59759084  0.86415326  1
  H  H926  1  0.52996803  0.59666698  0.90961842  1
  H  H927  1  0.85004890  0.69503688  0.84071738  1
  H  H928  1  0.82599447  0.57838318  0.82686001  1
  C  C929  1  0.74238301  0.67161957  0.99592296  1
  C  C930  1  0.55354945  0.54482893  0.81903605  1
  N  N931  1  0.74803100  0.89923678  0.82849741  1
  C  C932  1  0.62163179  0.64660599  0.78037571  1
  H  H933  1  0.68947325  0.74545212  0.83818181  1
  C  C934  1  0.89534076  0.75835018  0.75812512  1
  C  C935  1  0.61620888  0.70732678  0.89226330  1
  N  N936  1  0.79415215  0.72244598  0.77751649  1
  C  C937  1  0.51702324  0.84978579  0.90783057  1
  H  H938  1  0.72225040  0.82154499  0.94007758  1
  C  C939  1  0.91129236  0.53477186  0.81330986  1
  Cu  Cu940  1  0.86272127  0.98318871  0.84999984  1
  C  C941  1  0.72376732  0.96020488  0.81538978  1
  H  H942  1  0.70125111  0.91608664  0.94887961  1
  H  H943  1  0.74992118  0.62121096  0.89989992  1
  Cu  Cu944  1  0.81334696  0.93492705  0.96845549  1
  H  H945  1  0.89813599  0.73459590  0.93496048  1
  H  H946  1  0.80837960  0.83260128  0.80596575  1
  H  H947  1  0.60844993  0.85933334  0.90586089  1
  C  C948  1  0.66526338  0.74847153  0.88418021  1
  N  N949  1  0.90392097  0.90890262  0.90210972  1
  H  H950  1  0.74814774  0.51336182  0.92398893  1
  C  C951  1  0.88633089  0.84185160  0.90223496  1
  C  C952  1  0.87159781  0.57623516  0.92055460  1
  H  H953  1  0.96530892  0.97251948  0.93122641  1
  C  C954  1  0.58502413  0.70793815  0.95374459  1
  C  C955  1  0.79288356  0.88450295  0.78939194  1
  N  N956  1  0.57935550  0.53344696  0.75862955  1
  C  C957  1  0.68536431  0.96538468  0.97038582  1
  C  C958  1  0.96367339  0.80372687  0.97948825  1
  C  C959  1  0.59788001  0.65168865  0.84461090  1
  H  H960  1  0.91379690  0.52852435  0.76002478  1
  C  C961  1  0.68339912  0.78938841  0.93638113  1
  H  H962  1  0.84998149  0.84104210  0.86947615  1
  C  C963  1  0.95227108  0.91902327  0.93771548  1
  C  C964  1  0.77194595  0.63385108  0.94684594  1
  H  H965  1  0.92156454  0.90937504  0.77178782  1
  N  N966  1  0.65447765  0.78904943  0.99289712  1
  C  C967  1  0.85018115  0.72475282  0.79276128  1
  C  C968  1  0.86625124  0.56301043  0.85153991  1
  C  C969  1  0.91244239  0.78963744  0.93941217  1
  C  C970  1  0.82905065  0.61466520  0.96187329  1
  C  C971  1  0.56957967  0.87842702  0.92783850  1
  H  H972  1  0.54465055  0.67872035  0.95572037  1
  C  C973  1  0.98335461  0.87211713  0.97648421  1
  C  C974  1  0.92334538  0.54819995  0.94923010  1
  H  H975  1  0.96451697  0.65768068  0.95397076  1
  C  C976  1  0.57612260  0.93286453  0.97662935  1
  H  H977  1  0.68369073  0.96804224  0.84084058  1
  H  H978  1  0.50959803  0.80572565  0.87183879  1
  H  H979  1  0.69677172  0.68992189  0.99390693  1
  C  C980  1  0.98963534  0.67348457  0.99687323  1
  H  H981  1  0.94004424  0.76351272  0.78101007  1
  C  C982  1  0.96703295  0.51873039  0.90968668  1
  N  N983  1  0.58761150  0.99082753  0.80772521  1
  H  H984  1  0.64889063  0.68765884  0.76039258  1
  N  N985  1  0.96144476  0.51850968  0.84225104  1
  H  H986  1  0.99558799  0.50417716  0.81534544  1
  H  H987  1  0.52459104  0.50180405  0.83426411  1
  C  C988  1  0.60551682  0.75609843  0.99994879  1
  C  C989  1  0.51979773  0.94545970  0.99854743  1
  C  C990  1  0.62699589  0.97658127  0.99139196  1
  H  H991  1  0.70629137  0.85224786  0.75019430  1
