# generated using pymatgen
data_CuH12(C5N)3
_symmetry_space_group_name_H-M   'P 1'
_cell_length_a   22.30310730
_cell_length_b   17.41889428
_cell_length_c   23.43748168
_cell_angle_alpha   90.00000000
_cell_angle_beta   90.00000000
_cell_angle_gamma   90.00000000
_symmetry_Int_Tables_number   1
_chemical_formula_structural   CuH12(C5N)3
_chemical_formula_sum   'Cu32 H384 C480 N96'
_cell_volume   9105.35541990
_cell_formula_units_Z   32
loop_
 _symmetry_equiv_pos_site_id
 _symmetry_equiv_pos_as_xyz
  1  'x, y, z'
loop_
 _atom_site_type_symbol
 _atom_site_label
 _atom_site_symmetry_multiplicity
 _atom_site_fract_x
 _atom_site_fract_y
 _atom_site_fract_z
 _atom_site_occupancy
  H  H0  1  0.01481028  0.19305561  0.17997594  1
  C  C1  1  0.37914091  0.18989767  0.17866592  1
  Cu  Cu2  1  0.08861848  0.24076097  0.08515721  1
  H  H3  1  0.23751383  0.00532554  0.01323930  1
  N  N4  1  0.36767525  0.45144127  0.15107495  1
  C  C5  1  0.12634554  0.03137434  0.16117785  1
  N  N6  1  0.40688359  0.23966132  0.01313739  1
  C  C7  1  0.37250394  0.18468734  0.03915873  1
  C  C8  1  0.21727086  0.42727654  0.06618056  1
  C  C9  1  0.11928276  0.28422628  0.18320929  1
  N  N10  1  0.08003049  0.30692425  0.14537561  1
  N  N11  1  0.43023562  0.22878884  0.16389447  1
  H  H12  1  0.34144326  0.22199295  0.15763488  1
  C  C13  1  0.32440952  0.49730933  0.16672189  1
  C  C14  1  0.05932039  0.41149593  0.20986923  1
  C  C15  1  0.09085198  0.02672010  0.21147956  1
  H  H16  1  0.29871148  0.37073462  0.17661120  1
  C  C17  1  0.12162572  0.09139430  0.12412896  1
  C  C18  1  0.39467718  0.41649659  0.19372414  1
  C  C19  1  0.47976184  0.14268701  0.23239758  1
  N  N20  1  0.27012212  0.27733597  0.13037129  1
  N  N21  1  0.08016918  0.14927934  0.12824471  1
  C  C22  1  0.47766582  0.20063222  0.19212353  1
  N  N23  1  0.25220863  0.02420863  0.09954850  1
  C  C24  1  0.42565691  0.10099896  0.24407257  1
  Cu  Cu25  1  0.42049794  0.30613301  0.10162186  1
  C  C26  1  0.04355107  0.08141303  0.21110464  1
  H  H27  1  0.14612449  0.23332944  0.16622279  1
  Cu  Cu28  1  0.38387876  0.43180586  0.07309293  1
  C  C29  1  0.22451066  0.17289827  0.18174123  1
  C  C30  1  0.04449598  0.14235288  0.17266761  1
  H  H31  1  0.28938521  0.12547171  0.05377815  1
  Cu  Cu32  1  0.31131726  0.32083027  0.06609818  1
  C  C33  1  0.37269946  0.13157472  0.21862728  1
  C  C34  1  0.31309863  0.17144557  0.02994778  1
  H  H35  1  0.20694444  0.39122953  0.10247869  1
  H  H36  1  0.14967829  0.10047033  0.08822704  1
  C  C37  1  0.27346740  0.31577198  0.18174250  1
  C  C38  1  0.23897805  0.21144981  0.13303007  1
  H  H39  1  0.22709028  0.19116013  0.08954753  1
  H  H40  1  0.19628094  0.11918462  0.17677461  1
  H  H41  1  0.43573156  0.38277769  0.17967838  1
  H  H42  1  0.39656965  0.15971485  0.07692299  1
  N  N43  1  0.26904877  0.40999741  0.04303192  1
  C  C44  1  0.05044348  0.37095795  0.15987133  1
  H  H45  1  0.27276218  0.04145211  0.17721638  1
  H  H46  1  0.48765833  0.12884257  0.07811467  1
  C  C47  1  0.13184959  0.31739366  0.23659276  1
  C  C48  1  0.25895147  0.28223961  0.23457706  1
  C  C49  1  0.24084483  0.20433251  0.23627133  1
  Cu  Cu50  1  0.49590226  0.23848342  0.01894991  1
  Cu  Cu51  1  0.00646729  0.26073041  0.01479227  1
  H  H52  1  0.32916497  0.10844243  0.22945137  1
  H  H53  1  0.02116236  0.38816501  0.12181309  1
  H  H54  1  0.03503136  0.46508908  0.21694775  1
  C  C55  1  0.17974201  0.48478292  0.04601759  1
  H  H56  1  0.13404355  0.49212491  0.06749053  1
  H  H57  1  0.00799081  0.08211185  0.24610390  1
  H  H58  1  0.18893145  0.10277284  0.00190489  1
  H  H59  1  0.07918130  0.13236132  0.00328551  1
  H  H60  1  0.16350331  0.29136308  0.26629108  1
  H  H61  1  0.15341140  0.12079269  0.38060023  1
  H  H62  1  0.49305633  0.40954559  0.31541973  1
  C  C63  1  0.36129701  0.00453466  0.29396840  1
  C  C64  1  0.11221653  0.41784855  0.31057457  1
  C  C65  1  0.29243471  0.17998186  0.33024814  1
  N  N66  1  0.28480662  0.06438369  0.38212920  1
  C  C67  1  0.22738236  0.08175813  0.29505032  1
  C  C68  1  0.04485430  0.03924784  0.46995409  1
  C  C69  1  0.24748343  0.15976737  0.29026204  1
  C  C70  1  0.06568921  0.46669599  0.33434825  1
  H  H71  1  0.32347856  0.03287364  0.27373102  1
  H  H72  1  0.20258841  0.36977518  0.32571925  1
  H  H73  1  0.27143362  0.31239706  0.27406679  1
  H  H74  1  0.43634069  0.25272096  0.40639632  1
  H  H75  1  0.43725307  0.10493663  0.39071934  1
  C  C76  1  0.09866835  0.38379517  0.25171583  1
  H  H77  1  0.32995323  0.31967487  0.43957275  1
  H  H78  1  0.31392271  0.23756000  0.32580790  1
  C  C79  1  0.35292199  0.45458729  0.38058255  1
  C  C80  1  0.42426039  0.21253110  0.44096184  1
  H  H81  1  0.06801303  0.37443422  0.43251140  1
  H  H82  1  0.36348027  0.44392048  0.47221599  1
  H  H83  1  0.20201913  0.42312913  0.43191263  1
  H  H84  1  0.33857152  0.14876606  0.41199573  1
  H  H85  1  0.48981494  0.35850339  0.45951172  1
  C  C86  1  0.42197351  0.03170170  0.28188115  1
  C  C87  1  0.45881752  0.38680275  0.48693913  1
  C  C88  1  0.24393334  0.04381392  0.34422284  1
  N  N89  1  0.26948939  0.01117532  0.49079637  1
  C  C90  1  0.43125968  0.13316040  0.43226183  1
  C  C91  1  0.11450674  0.11405581  0.40651158  1
  C  C92  1  0.30763318  0.13368472  0.37739396  1
  N  N93  1  0.08715873  0.18237606  0.41345861  1
  C  C94  1  0.16505460  0.39960580  0.34150647  1
  C  C95  1  0.04029075  0.17767087  0.45002919  1
  H  H96  1  0.02555374  0.23674641  0.45701950  1
  C  C97  1  0.09504267  0.04565847  0.43286431  1
  H  H98  1  0.19646489  0.05544148  0.26158899  1
  C  C99  1  0.16743265  0.43135622  0.39717361  1
  C  C100  1  0.02064866  0.11478856  0.47966336  1
  N  N101  1  0.41783200  0.08336101  0.47172704  1
  H  H102  1  0.38835739  0.41025779  0.37515100  1
  C  C103  1  0.03230699  0.36974054  0.46297022  1
  H  H104  1  0.41274765  0.40665663  0.28124133  1
  C  C105  1  0.34404593  0.47775225  0.43759461  1
  C  C106  1  0.28279815  0.31713965  0.46053507  1
  H  H107  1  0.04907260  0.33197161  0.36461219  1
  N  N108  1  0.25958542  0.25160272  0.44506997  1
  H  H109  1  0.47830094  0.26387027  0.28644861  1
  C  C110  1  0.20307733  0.23887306  0.46257112  1
  H  H111  1  0.18213579  0.18690130  0.44275026  1
  C  C112  1  0.00402210  0.31495292  0.35091788  1
  H  H113  1  0.02278919  0.47850619  0.31631110  1
  C  C114  1  0.41276385  0.24789942  0.49453655  1
  C  C115  1  0.07817286  0.49420646  0.38926435  1
  C  C116  1  0.32615948  0.49439985  0.33396905  1
  N  N117  1  0.12954271  0.47954661  0.41805738  1
  C  C118  1  0.33666989  0.47886575  0.27081314  1
  Cu  Cu119  1  0.32631316  0.00088367  0.43307750  1
  C  C120  1  0.25526523  0.36984228  0.49771145  1
  C  C121  1  0.38117783  0.43049248  0.25106167  1
  H  H122  1  0.02488515  0.27104934  0.26566300  1
  C  C123  1  0.32497318  0.39416731  0.67321106  1
  C  C124  1  0.13705427  0.42943136  0.66575354  1
  C  C125  1  0.37490791  0.36508833  0.54865642  1
  H  H126  1  0.41621907  0.30719239  0.61917819  1
  C  C127  1  0.44675430  0.31684974  0.65431129  1
  H  H128  1  0.13445060  0.24861647  0.52959999  1
  H  H129  1  0.40761942  0.06412430  0.54948765  1
  C  C130  1  0.43603795  0.10162735  0.72782287  1
  C  C131  1  0.32342438  0.20431497  0.67896167  1
  H  H132  1  0.37986991  0.20701550  0.57417464  1
  C  C133  1  0.15544463  0.37413762  0.62674772  1
  H  H134  1  0.37340027  0.19925462  0.68084057  1
  H  H135  1  0.33339488  0.02026315  0.69217136  1
  C  C136  1  0.25602887  0.21185033  0.60847138  1
  H  H137  1  0.24018912  0.43767870  0.63125918  1
  C  C138  1  0.16855486  0.47828309  0.55938405  1
  H  H139  1  0.05517910  0.03365408  0.67662292  1
  H  H140  1  0.15809754  0.31338002  0.63935716  1
  C  C141  1  0.42777500  0.05368339  0.67495000  1
  C  C142  1  0.03127083  0.23251139  0.60941240  1
  C  C143  1  0.37993187  0.44246521  0.56472442  1
  C  C144  1  0.39649675  0.19109594  0.53395845  1
  H  H145  1  0.30404334  0.10399770  0.52220554  1
  H  H146  1  0.19253806  0.04620927  0.69687430  1
  C  C147  1  0.27079662  0.06086046  0.53284536  1
  H  H148  1  0.34030556  0.32411395  0.56395612  1
  C  C149  1  0.45884573  0.46530649  0.50440497  1
  C  C150  1  0.20853568  0.20710041  0.64730265  1
  H  H151  1  0.12459424  0.42113407  0.70944990  1
  C  C152  1  0.17462743  0.39785541  0.57178926  1
  H  H153  1  0.09092686  0.20563533  0.69476448  1
  H  H154  1  0.16176435  0.20776603  0.63109104  1
  C  C155  1  0.17342844  0.27698036  0.50735148  1
  H  H156  1  0.11858460  0.09439924  0.58799483  1
  C  C157  1  0.28198063  0.44683552  0.65688567  1
  H  H158  1  0.31859616  0.33377113  0.66494416  1
  C  C159  1  0.23224440  0.05294496  0.57947462  1
  H  H160  1  0.23658652  0.09172082  0.61623320  1
  C  C161  1  0.37902825  0.42118571  0.69969884  1
  C  C162  1  0.08023688  0.11894875  0.61003208  1
  H  H163  1  0.25377863  0.21538602  0.56221959  1
  C  C164  1  0.04708918  0.08962588  0.65404170  1
  N  N165  1  0.31397574  0.21012897  0.62108005  1
  H  H166  1  0.08544462  0.44365515  0.52295300  1
  N  N167  1  0.07587666  0.18967229  0.58932537  1
  H  H168  1  0.01525239  0.01856955  0.74488825  1
  C  C169  1  0.20077904  0.34707337  0.52385690  1
  C  C170  1  0.40633535  0.11365971  0.52243489  1
  C  C171  1  0.21719838  0.20790148  0.70821177  1
  C  C172  1  0.41684828  0.33526476  0.50822368  1
  Cu  Cu173  1  0.01069278  0.49152551  0.62416570  1
  C  C174  1  0.47704809  0.03625574  0.63748871  1
  C  C175  1  0.43363207  0.37036538  0.70022875  1
  N  N176  1  0.42204413  0.48820127  0.54440008  1
  H  H177  1  0.03386723  0.28916914  0.59052208  1
  H  H178  1  0.35488951  0.46923218  0.60084046  1
  C  C179  1  0.10488301  0.20618984  0.73874851  1
  N  N180  1  0.00632956  0.41844113  0.55948994  1
  C  C181  1  0.37490893  0.49798988  0.71850305  1
  H  H182  1  0.27706156  0.42621546  0.50548982  1
  C  C183  1  0.04400189  0.41159358  0.51354014  1
  C  C184  1  0.27902445  0.21136710  0.72116577  1
  C  C185  1  0.15668364  0.00557312  0.68589293  1
  C  C186  1  0.47815719  0.38170823  0.74208144  1
  C  C187  1  0.37265658  0.01298338  0.66484688  1
  H  H188  1  0.17904493  0.49742349  0.51636721  1
  C  C189  1  0.49519932  0.12467104  0.74328057  1
  C  C190  1  0.16720531  0.21225231  0.75003947  1
  C  C191  1  0.44811295  0.47592047  0.93352513  1
  H  H192  1  0.29451059  0.22207999  0.76578892  1
  C  C193  1  0.36566098  0.48881243  0.86503672  1
  C  C194  1  0.34114225  0.06165428  0.89884383  1
  H  H195  1  0.45501958  0.32631278  0.85938325  1
  C  C196  1  0.06157719  0.20914583  0.78097420  1
  C  C197  1  0.17516942  0.16127991  0.99045267  1
  H  H198  1  0.13414913  0.22921369  0.89233634  1
  N  N199  1  0.04342036  0.02598567  0.87911439  1
  H  H200  1  0.22669080  0.25019645  0.82050312  1
  C  C201  1  0.38581913  0.41934782  0.83988313  1
  H  H202  1  0.36484963  0.40112295  0.79839122  1
  H  H203  1  0.32581360  0.11631257  0.91545762  1
  N  N204  1  0.46460521  0.17226917  0.83530354  1
  H  H205  1  0.09237672  0.11820343  0.88481053  1
  C  C206  1  0.11458976  0.17543900  0.99518595  1
  Cu  Cu207  1  0.42592260  0.12601662  0.96425589  1
  Cu  Cu208  1  0.02109087  0.21125534  0.90383792  1
  C  C209  1  0.15058652  0.01543586  0.89815770  1
  C  C210  1  0.13521393  0.22406864  0.84549556  1
  C  C211  1  0.40604408  0.15579245  0.81563881  1
  H  H212  1  0.21627936  0.35011176  0.97997869  1
  H  H213  1  0.26899365  0.42587725  0.81305212  1
  H  H214  1  0.01334020  0.46631200  0.80325640  1
  H  H215  1  0.32819626  0.43096602  0.98033471  1
  N  N216  1  0.39294401  0.04700032  0.92109434  1
  C  C217  1  0.12693533  0.30593670  0.97837334  1
  C  C218  1  0.18736465  0.30053501  0.97763712  1
  N  N219  1  0.46341787  0.40835365  0.91281309  1
  C  C220  1  0.18300773  0.22991515  0.80865726  1
  C  C221  1  0.38692236  0.11842070  0.76702636  1
  H  H222  1  0.19261485  0.04849469  0.90904173  1
  N  N223  1  0.07670334  0.21134539  0.83671298  1
  C  C224  1  0.31709774  0.27031897  0.95564413  1
  H  H225  1  0.01329722  0.21055354  0.77731260  1
  H  H226  1  0.33945145  0.10579641  0.75958146  1
  H  H227  1  0.29354322  0.30714348  0.92634847  1
  H  H228  1  0.26620840  0.03393725  0.83930291  1
  C  C229  1  0.37744882  0.27716205  0.96867597  1
  H  H230  1  0.37568348  0.17576042  0.85174626  1
  C  C231  1  0.09742543  0.05540941  0.88468286  1
  H  H232  1  0.41052567  0.31341238  0.94852462  1
  C  C233  1  0.43193859  0.38205538  0.87025327  1
  C  C234  1  0.21407234  0.22499695  0.98347711  1
  H  H235  1  0.09656264  0.35671271  0.97468639  1
  C  C236  1  0.28234074  0.21627680  0.98730790  1
  H  H237  1  0.05277708  0.33130941  0.84181883  1
  C  C238  1  0.30985341  0.01620245  0.85863654  1
  N  N239  1  0.08888302  0.24370252  0.98500453  1
  H  H240  1  0.47475367  0.42149844  0.77898868  1
  H  H241  1  0.04554872  0.04656038  0.96418439  1
  C  C242  1  0.00905225  0.35989416  0.84821740  1
  C  C243  1  0.28440239  0.44722548  0.99689567  1
  H  H244  1  0.48594874  0.03177855  0.82444421  1
  Cu  Cu245  1  0.49274730  0.22124652  0.90999177  1
  C  C246  1  0.26247506  0.49077873  0.81769140  1
  H  H247  1  0.47964982  0.48937922  0.96985793  1
  C  C248  1  0.02220138  0.01331880  0.99883953  1
  H  H249  1  0.04431703  0.41718052  0.96401108  1
  C  C250  1  0.00651120  0.43613810  0.99161176  1
  C  C251  1  0.48270922  0.91898660  0.05738338  1
  C  C252  1  0.47760152  0.77011885  0.09358876  1
  C  C253  1  0.39586897  0.79597067  0.20039389  1
  H  H254  1  0.25614158  0.75083583  0.03933226  1
  C  C255  1  0.25995173  0.99292461  0.14955579  1
  H  H256  1  0.40191328  0.57573448  0.13897047  1
  H  H257  1  0.19198787  0.91834017  0.24289981  1
  C  C258  1  0.21889959  0.74673737  0.18095399  1
  C  C259  1  0.06802898  0.80588801  0.11171072  1
  N  N260  1  0.22488465  0.61759022  0.14262425  1
  H  H261  1  0.39447395  0.84619360  0.17060969  1
  H  H262  1  0.09227097  0.93561753  0.02153130  1
  C  C263  1  0.08157691  0.72933996  0.12524896  1
  H  H264  1  0.32484389  0.64832900  0.17085124  1
  C  C265  1  0.24619920  0.97586067  0.05570113  1
  H  H266  1  0.39244443  0.78052949  0.03561507  1
  C  C267  1  0.23667131  0.78110881  0.12815745  1
  C  C268  1  0.24165114  0.64899508  0.09287657  1
  H  H269  1  0.09937621  0.85220611  0.12293968  1
  C  C270  1  0.35549657  0.67839108  0.20249382  1
  C  C271  1  0.00493808  0.91045512  0.06570456  1
  H  H272  1  0.19615940  0.63499061  0.22163654  1
  C  C273  1  0.38366494  0.61156867  0.05085095  1
  C  C274  1  0.49240642  0.54929432  0.19522115  1
  C  C275  1  0.24167010  0.89690775  0.06252731  1
  H  H276  1  0.05841704  0.73247038  0.02147121  1
  H  H277  1  0.22965910  0.85601907  0.02758574  1
  H  H278  1  0.27382216  0.55761651  0.23400804  1
  H  H279  1  0.47228204  0.71323698  0.10940389  1
  H  H280  1  0.24713896  0.60029485  0.06076682  1
  C  C281  1  0.24569431  0.72800108  0.08222777  1
  C  C282  1  0.25802369  0.91410467  0.16537061  1
  N  N283  1  0.43431422  0.87655140  0.03946059  1
  C  C284  1  0.04538735  0.94987429  0.02810974  1
  C  C285  1  0.41987744  0.58696602  0.09687184  1
  C  C286  1  0.43374728  0.80566422  0.05642449  1
  C  C287  1  0.21628650  0.66814586  0.18616486  1
  H  H288  1  0.33264819  0.62584639  0.05095452  1
  H  H289  1  0.44832845  0.57346068  0.19780221  1
  H  H290  1  0.14322407  0.64088510  0.05875935  1
  H  H291  1  0.12460723  0.70928441  0.14665238  1
  H  H292  1  0.27567488  0.89166033  0.20854615  1
  C  C293  1  0.12860965  0.64123248  0.01250849  1
  H  H294  1  0.20464748  0.78095054  0.21880326  1
  N  N295  1  0.36391038  0.74306042  0.17439464  1
  C  C296  1  0.24294262  0.86626072  0.11880249  1
  N  N297  1  0.04389089  0.67052999  0.11567873  1
  N  N298  1  0.07802113  0.60747504  0.23589324  1
  C  C299  1  0.48314222  0.58084381  0.09069540  1
  C  C300  1  0.30693338  0.51281002  0.22333507  1
  H  H301  1  0.48178975  0.97588670  0.03750656  1
  H  H302  1  0.30492405  0.52144379  0.12916963  1
  C  C303  1  0.07301364  0.68249195  0.24879656  1
  C  C304  1  0.01447348  0.82712272  0.08342630  1
  H  H305  1  0.15986145  0.98604528  0.15223918  1
  H  H306  1  0.03524115  0.70571670  0.22081695  1
  H  H307  1  0.12267220  0.51092067  0.24355851  1
  H  H308  1  0.31180071  0.92251110  0.34644673  1
  H  H309  1  0.26244094  0.62581525  0.43317361  1
  C  C310  1  0.20139298  0.72388953  0.35375387  1
  C  C311  1  0.47140920  0.99320631  0.30657721  1
  H  H312  1  0.37582407  0.60677681  0.27246510  1
  H  H313  1  0.49142205  0.50700097  0.48985041  1
  H  H314  1  0.22185887  0.98853942  0.35724080  1
  H  H315  1  0.16175857  0.63688064  0.48426609  1
  C  C316  1  0.19692499  0.75344064  0.40947229  1
  C  C317  1  0.47589635  0.75896997  0.37250964  1
  N  N318  1  0.11336462  0.88005264  0.36151274  1
  H  H319  1  0.07927002  0.88811341  0.45345770  1
  N  N320  1  0.29361449  0.80250488  0.40676491  1
  N  N321  1  0.40029790  0.91350953  0.36399016  1
  C  C322  1  0.29207336  0.55912640  0.35390229  1
  H  H323  1  0.38276731  0.63443613  0.47568203  1
  C  C324  1  0.38163468  0.66270695  0.25582449  1
  C  C325  1  0.35421822  0.94694775  0.33484923  1
  H  H326  1  0.36429648  0.63224250  0.37169027  1
  C  C327  1  0.12093448  0.57060270  0.26168458  1
  H  H328  1  0.19847959  0.85842508  0.34398672  1
  N  N329  1  0.45434527  0.71774951  0.46818829  1
  Cu  Cu330  1  0.36851472  0.84851004  0.42998206  1
  C  C331  1  0.05693547  0.95732813  0.29618627  1
  C  C332  1  0.48222390  0.76181239  0.43228363  1
  H  H333  1  0.10377944  0.78567105  0.29195109  1
  C  C334  1  0.24636340  0.78746624  0.43614859  1
  Cu  Cu335  1  0.43374553  0.97719281  0.45982650  1
  C  C336  1  0.15900072  0.88680337  0.32339785  1
  C  C337  1  0.15614676  0.68528594  0.31357917  1
  C  C338  1  0.25744303  0.73533395  0.32683336  1
  C  C339  1  0.41427941  0.72184079  0.28446264  1
  C  C340  1  0.30059833  0.77871600  0.35394735  1
  C  C341  1  0.41360126  0.67215684  0.44732971  1
  C  C342  1  0.45484294  0.93734924  0.34852779  1
  H  H343  1  0.23170344  0.92289543  0.44825719  1
  C  C344  1  0.43159335  0.71330345  0.34639197  1
  H  H345  1  0.44988889  0.84347202  0.27266200  1
  C  C346  1  0.10998205  0.72519770  0.28600090  1
  H  H347  1  0.24653951  0.81159587  0.47989987  1
  C  C348  1  0.40185881  0.66901888  0.38873727  1
  C  C349  1  0.15658157  0.60336614  0.30460649  1
  C  C350  1  0.06306856  0.91167397  0.34513329  1
  C  C351  1  0.28680176  0.57715022  0.41250022  1
  H  H352  1  0.34357801  0.79980173  0.33465780  1
  H  H353  1  0.15239177  0.75250033  0.42841797  1
  H  H354  1  0.26867651  0.71416936  0.28328145  1
  H  H355  1  0.26418821  0.58881619  0.32217685  1
  H  H356  1  0.03141789  0.90549325  0.38163544  1
  H  H357  1  0.05006002  0.53219757  0.41536337  1
  H  H358  1  0.49902376  0.53115019  0.28882903  1
  C  C359  1  0.22887223  0.95713901  0.48851847  1
  N  N360  1  0.30697384  0.53284024  0.45382134  1
  H  H361  1  0.18584912  0.56590953  0.33135885  1
  H  H362  1  0.49231414  0.90641176  0.37186474  1
  C  C363  1  0.42207078  0.79321517  0.25404870  1
  H  H364  1  0.05233147  0.58323841  0.49893696  1
  H  H365  1  0.11818791  0.98999357  0.42872004  1
  C  C366  1  0.04667285  0.89611543  0.48751166  1
  H  H367  1  0.01661454  0.99230871  0.28861074  1
  C  C368  1  0.15257790  0.91904797  0.26974044  1
  C  C369  1  0.10228416  0.96656027  0.25566282  1
  C  C370  1  0.09706063  0.92656487  0.62153598  1
  C  C371  1  0.05564990  0.69735984  0.60278139  1
  H  H372  1  0.19433947  0.84753701  0.59767568  1
  H  H373  1  0.18610153  0.86494895  0.71005438  1
  C  C374  1  0.42362449  0.67372056  0.69648947  1
  Cu  Cu375  1  0.22587640  0.58653190  0.64304543  1
  H  H376  1  0.12407240  0.78519312  0.62947954  1
  C  C377  1  0.15464261  0.71013461  0.56100342  1
  H  H378  1  0.02401665  0.86269089  0.66899407  1
  H  H379  1  0.31794841  0.60794901  0.71029031  1
  C  C380  1  0.18892478  0.99597596  0.58056878  1
  H  H381  1  0.29032232  0.91321280  0.56514743  1
  C  C382  1  0.22835430  0.81601824  0.57413580  1
  C  C383  1  0.32247398  0.73840825  0.53105947  1
  C  C384  1  0.11833262  0.97752164  0.72803531  1
  N  N385  1  0.41677663  0.93973915  0.58405575  1
  H  H386  1  0.04844368  0.77180473  0.52081461  1
  N  N387  1  0.07174696  0.92942752  0.72156822  1
  C  C388  1  0.14092651  0.52646227  0.59833146  1
  H  H389  1  0.34938331  0.80158178  0.62604042  1
  C  C390  1  0.11217798  0.73389089  0.60351963  1
  Cu  Cu391  1  0.46339669  0.72317885  0.54939418  1
  N  N392  1  0.33311227  0.81340621  0.54150896  1
  N  N393  1  0.25477089  0.79421511  0.72025121  1
  C  C394  1  0.38306971  0.78272710  0.65935546  1
  C  C395  1  0.37380645  0.95977346  0.62082511  1
  C  C396  1  0.46892464  0.97733869  0.59771064  1
  H  H397  1  0.15203344  0.90450138  0.53372790  1
  N  N398  1  0.03776307  0.64711103  0.56534019  1
  C  C399  1  0.21654494  0.74131380  0.55227041  1
  H  H400  1  0.01560934  0.70589298  0.63330642  1
  H  H401  1  0.12475467  0.58766751  0.59448123  1
  Cu  Cu402  1  0.33279788  0.64695740  0.61744772  1
  Cu  Cu403  1  0.08254041  0.57636913  0.70027422  1
  C  C404  1  0.41680865  0.82942620  0.69520231  1
  Cu  Cu405  1  0.24544289  0.72699017  0.65844540  1
  Cu  Cu406  1  0.41897016  0.59186523  0.56893086  1
  C  C407  1  0.07578712  0.62787880  0.52498458  1
  N  N408  1  0.38261571  0.70608212  0.66456111  1
  C  C409  1  0.14733073  0.97691727  0.62982788  1
  H  H410  1  0.32220690  0.72425652  0.73017943  1
  H  H411  1  0.08144164  0.91741608  0.57835126  1
  C  C412  1  0.28396767  0.85002121  0.56349416  1
  H  H413  1  0.40909937  0.89293099  0.69263715  1
  C  C414  1  0.06410875  0.90221043  0.66913468  1
  Cu  Cu415  1  0.41623634  0.85591468  0.52563956  1
  H  H416  1  0.41819801  0.60802293  0.68689919  1
  C  C417  1  0.03113154  0.83083052  0.52162034  1
  C  C418  1  0.46322956  0.79454205  0.72970144  1
  C  C419  1  0.46507234  0.71336178  0.72861048  1
  C  C420  1  0.26873456  0.69835093  0.53509153  1
  N  N421  1  0.28481946  0.52158708  0.66723173  1
  C  C422  1  0.32742049  0.54653929  0.70101694  1
  C  C423  1  0.13348437  0.65793087  0.51880912  1
  C  C424  1  0.18807511  0.94682892  0.53360879  1
  H  H425  1  0.36656717  0.72225096  0.51592169  1
  H  H426  1  0.33742160  0.91984629  0.60944698  1
  Cu  Cu427  1  0.16951317  0.66059138  0.72804557  1
  C  C428  1  0.22706094  0.85823508  0.73494616  1
  H  H429  1  0.26647484  0.63755552  0.52368805  1
  H  H430  1  0.10214603  0.73149046  0.73128374  1
  N  N431  1  0.12355417  0.50215513  0.65289074  1
  H  H432  1  0.41068048  0.52118732  0.74495330  1
  H  H433  1  0.43813096  0.94991741  0.74739488  1
  C  C434  1  0.02525887  0.97114323  0.50225701  1
  H  H435  1  0.05189807  0.83313379  0.79086849  1
  C  C436  1  0.24828253  0.64289918  0.81935237  1
  N  N437  1  0.28832074  0.77275881  0.95602966  1
  C  C438  1  0.14841158  0.93315778  0.89875049  1
  C  C439  1  0.30065523  0.84670428  0.95081319  1
  C  C440  1  0.19165675  0.52524194  0.99539317  1
  C  C441  1  0.30348551  0.77657435  0.75016373  1
  H  H442  1  0.23398398  0.70490144  0.82025866  1
  H  H443  1  0.34649906  0.86163731  0.96534663  1
  C  C444  1  0.25661192  0.89716335  0.93501075  1
  C  C445  1  0.21724504  0.53087980  0.78829502  1
  C  C446  1  0.19637568  0.87880779  0.91842982  1
  C  C447  1  0.43203723  0.75880906  0.90536486  1
  N  N448  1  0.42319103  0.70486719  0.86803831  1
  C  C449  1  0.15191887  0.58979107  0.97141056  1
  C  C450  1  0.39306027  0.92690011  0.87130626  1
  H  H451  1  0.15854518  0.57375477  0.88047850  1
  H  H452  1  0.47429043  0.64295054  0.95208184  1
  C  C453  1  0.41723086  0.97927510  0.90841466  1
  C  C454  1  0.30825239  0.52985868  0.84819571  1
  C  C455  1  0.09235494  0.65856122  0.90093448  1
  N  N456  1  0.06338129  0.69948164  0.93987438  1
  H  H457  1  0.38686255  0.78122639  0.91611560  1
  C  C458  1  0.23584937  0.75232654  0.93875738  1
  C  C459  1  0.03565295  0.77301647  0.79419440  1
  H  H460  1  0.38719042  0.57155510  0.93147607  1
  C  C461  1  0.13494001  0.60408051  0.91422708  1
  H  H462  1  0.22474445  0.96365477  0.79007447  1
  H  H463  1  0.07479259  0.67580500  0.85802697  1
  H  H464  1  0.08391126  0.84538968  0.88543499  1
  H  H465  1  0.27156664  0.95561636  0.92850610  1
  H  H466  1  0.32605380  0.65260050  0.87162184  1
  H  H467  1  0.24055915  0.69066949  0.94400535  1
  C  C468  1  0.30445449  0.89213066  0.80351830  1
  N  N469  1  0.21062940  0.60571751  0.78586993  1
  C  C470  1  0.18753092  0.79876943  0.92343886  1
  C  C471  1  0.04042330  0.95023320  0.87502679  1
  C  C472  1  0.24891753  0.90913713  0.77673745  1
  C  C473  1  0.47068623  0.92378503  0.77670265  1
  C  C474  1  0.33541296  0.94449370  0.84536605  1
  C  C475  1  0.33108997  0.81854745  0.79432889  1
  C  C476  1  0.29577190  0.61121947  0.85061582  1
  H  H477  1  0.14330483  0.77844747  0.91317884  1
  H  H478  1  0.12007822  0.99594474  0.77239943  1
  H  H479  1  0.37312634  0.80299232  0.81296143  1
  H  H480  1  0.41410295  0.87074952  0.86259574  1
  C  C481  1  0.09001380  0.90514272  0.88453756  1
  C  C482  1  0.24799503  0.50377772  0.97293418  1
  H  H483  1  0.26347041  0.54082030  0.93756698  1
  H  H484  1  0.48913859  0.83110254  0.96675847  1
  H  H485  1  0.45559370  0.62296974  0.82224579  1
  C  C486  1  0.47142573  0.66398772  0.85296331  1
  C  C487  1  0.48561258  0.78157508  0.93186841  1
  H  H488  1  0.45703621  0.96233664  0.93593616  1
  C  C489  1  0.46194701  0.62186229  0.99416172  1
  C  C490  1  0.39874225  0.51796698  0.91200989  1
  H  H491  1  0.00652279  0.83584359  0.93883452  1
  C  C492  1  0.08500929  0.69213848  0.99260559  1
  H  H493  1  0.49956460  0.68124837  0.75363720  1
  C  C494  1  0.49696455  0.97049251  0.81770568  1
  C  C495  1  0.49279219  0.84636920  0.77216705  1
  H  H496  1  0.00619113  0.55702993  0.96801306  1
  N  N497  1  0.40296847  0.62671280  0.99916750  1
  C  C498  1  0.06375740  0.71978612  0.75946698  1
  N  N499  1  0.04538537  0.64667023  0.75610230  1
  H  H500  1  0.18517610  0.50776479  0.75551776  1
  N  N501  1  0.79301449  0.11767120  0.22627605  1
  N  N502  1  0.97199735  0.04866330  0.01006778  1
  C  C503  1  0.70297583  0.19366385  0.24267131  1
  C  C504  1  0.69902722  0.00419955  0.11088458  1
  H  H505  1  0.77893437  0.42922930  0.10426627  1
  C  C506  1  0.56413737  0.02559890  0.20480382  1
  C  C507  1  0.64955117  0.25910227  0.16127461  1
  H  H508  1  0.80992504  0.24776246  0.22905582  1
  H  H509  1  0.68848817  0.23677748  0.08211824  1
  C  C510  1  0.64887239  0.26668413  0.10106071  1
  N  N511  1  0.89481402  0.19739379  0.02905679  1
  C  C512  1  0.75541705  0.45034083  0.19422309  1
  C  C513  1  0.60469931  0.30592419  0.07080911  1
  C  C514  1  0.80120462  0.33507839  0.16104084  1
  H  H515  1  0.89715321  0.05646054  0.05669010  1
  C  C516  1  0.77717119  0.40722819  0.14838774  1
  C  C517  1  0.83054730  0.28619760  0.11430174  1
  H  H518  1  0.52726490  0.38169826  0.17312328  1
  H  H519  1  0.94769277  0.15179176  0.08965610  1
  H  H520  1  0.89951927  0.38673148  0.20151228  1
  H  H521  1  0.73383414  0.16738257  0.09972040  1
  H  H522  1  0.59313208  0.28638186  0.23265601  1
  H  H523  1  0.59880482  0.31066298  0.02547455  1
  C  C524  1  0.90512288  0.46005796  0.05320212  1
  C  C525  1  0.93544530  0.38946880  0.04764049  1
  H  H526  1  0.82661729  0.10526669  0.14800945  1
  C  C527  1  0.67800978  0.00335746  0.05288907  1
  H  H528  1  0.64561775  0.46597964  0.19991148  1
  H  H529  1  0.86036531  0.46536893  0.07222903  1
  N  N530  1  0.56305449  0.34349466  0.09837958  1
  C  C531  1  0.78629153  0.12825029  0.17236341  1
  H  H532  1  0.77655531  0.31994195  0.04473592  1
  C  C533  1  0.81309115  0.27801267  0.05546791  1
  H  H534  1  0.92318471  0.33402562  0.06771117  1
  C  C535  1  0.79692382  0.30569605  0.21691235  1
  N  N536  1  0.59823664  0.07695160  0.23076079  1
  H  H537  1  0.59295112  0.09236713  0.11475984  1
  C  C538  1  0.60048727  0.29710976  0.18733653  1
  H  H539  1  0.89958569  0.23780197  0.17148297  1
  C  C540  1  0.69689545  0.20282190  0.18267901  1
  C  C541  1  0.91003572  0.19415944  0.08544706  1
  C  C542  1  0.88250837  0.23990063  0.12717553  1
  C  C543  1  0.73690444  0.16456026  0.14712463  1
  C  C544  1  0.84532799  0.23810693  0.01469437  1
  C  C545  1  0.56144619  0.34186766  0.15372307  1
  C  C546  1  0.57807793  0.07175560  0.07164363  1
  H  H547  1  0.89052775  0.02210495  0.23824352  1
  Cu  Cu548  1  0.50128730  0.39165923  0.05658959  1
  C  C549  1  0.52122867  0.09602616  0.05328033  1
  N  N550  1  0.98318255  0.37034827  0.01523366  1
  C  C551  1  0.61628189  0.02920458  0.03523369  1
  H  H552  1  0.66819902  0.02211327  0.14691143  1
  C  C553  1  0.93678211  0.01909277  0.04963977  1
  C  C554  1  0.91001379  0.43937041  0.22760405  1
  H  H555  1  0.51493259  0.23147225  0.17312884  1
  C  C556  1  0.60175854  0.49427362  0.19476248  1
  N  N557  1  0.92581233  0.49060566  0.18651606  1
  H  H558  1  0.53521099  0.05526585  0.17267401  1
  N  N559  1  0.74621609  0.42259106  0.24790852  1
  H  H560  1  0.98781750  0.09250395  0.36676212  1
  C  C561  1  0.72103452  0.32862258  0.44956657  1
  H  H562  1  0.66386348  0.37377319  0.37469102  1
  Cu  Cu563  1  0.71334816  0.48033686  0.31412148  1
  H  H564  1  0.81751062  0.48277951  0.37223032  1
  H  H565  1  0.91061535  0.40251769  0.31430895  1
  C  C566  1  0.93078097  0.49282187  0.41438278  1
  C  C567  1  0.74620784  0.19723754  0.38297365  1
  C  C568  1  0.90133921  0.29127042  0.37971874  1
  H  H569  1  0.86421263  0.39949040  0.45473896  1
  C  C570  1  0.52050062  0.36563969  0.33541184  1
  C  C571  1  0.69873777  0.08094021  0.42045613  1
  H  H572  1  0.67267050  0.22724425  0.27493528  1
  C  C573  1  0.56746021  0.45084310  0.41260346  1
  C  C574  1  0.79975391  0.08923122  0.38883644  1
  H  H575  1  0.76081049  0.12834038  0.30288025  1
  C  C576  1  0.56858397  0.23936121  0.38458283  1
  H  H577  1  0.86575947  0.28613679  0.40956019  1
  C  C578  1  0.95996778  0.31572575  0.39501576  1
  C  C579  1  0.81874625  0.39371025  0.43967893  1
  C  C580  1  0.91628348  0.45055291  0.28557355  1
  N  N581  1  0.74019416  0.42453604  0.37801647  1
  C  C582  1  0.99009532  0.28128659  0.29985524  1
  H  H583  1  0.63826257  0.41633518  0.47330394  1
  C  C584  1  0.59778177  0.08797875  0.46575300  1
  C  C585  1  0.58840209  0.30904662  0.40387129  1
  H  H586  1  0.51919927  0.00963652  0.29805763  1
  N  N587  1  0.93996554  0.05925818  0.30264891  1
  H  H588  1  0.61356920  0.30922204  0.44382276  1
  N  N589  1  0.80026734  0.16374592  0.37689465  1
  C  C590  1  0.75037517  0.14639804  0.26016650  1
  H  H591  1  0.75474078  0.34189263  0.30091348  1
  H  H592  1  0.60495772  0.14628036  0.48125573  1
  C  C593  1  0.54101986  0.05751446  0.46780293  1
  H  H594  1  0.50360259  0.09251019  0.48399893  1
  C  C595  1  0.56267056  0.37777316  0.38002287  1
  H  H596  1  0.58492059  0.18247882  0.40284495  1
  C  C597  1  0.78173836  0.33846634  0.46642392  1
  C  C598  1  0.79414607  0.43934232  0.39662957  1
  H  H599  1  0.65586834  0.19697163  0.41697094  1
  C  C600  1  0.70495323  0.37289062  0.40174078  1
  C  C601  1  0.69710717  0.16144344  0.41003431  1
  H  H602  1  0.69216941  0.28373738  0.46776647  1
  H  H603  1  0.75386215  0.25683505  0.37229679  1
  H  H604  1  0.85200786  0.22689833  0.31012449  1
  C  C605  1  0.89184532  0.25888488  0.32489326  1
  N  N606  1  0.93500696  0.25606382  0.28404421  1
  C  C607  1  0.76643989  0.35171175  0.25557632  1
  H  H608  1  0.91609802  0.43267911  0.40152714  1
  C  C609  1  0.94953539  0.05289510  0.35859488  1
  C  C610  1  0.60903947  0.46143619  0.45913250  1
  H  H611  1  0.65885394  0.09807916  0.28833622  1
  N  N612  1  0.53118141  0.22583871  0.34490977  1
  C  C613  1  0.64460919  0.04042826  0.44333648  1
  Cu  Cu614  1  0.60977731  0.45703755  0.30909052  1
  C  C615  1  0.97345569  0.33882521  0.45473663  1
  H  H616  1  0.84590473  0.07012927  0.37846449  1
  C  C617  1  0.75182151  0.04126993  0.40627753  1
  C  C618  1  0.50825705  0.28947126  0.32071252  1
  C  C619  1  0.89866005  0.01022377  0.28301359  1
  H  H620  1  0.80262746  0.17794634  0.47833336  1
  H  H621  1  0.73228265  0.43591586  0.49472231  1
  H  H622  1  0.52132285  0.12256191  0.25500870  1
  C  C623  1  0.63346799  0.04906789  0.27384771  1
  C  C624  1  0.55513012  0.28528574  0.54062012  1
  H  H625  1  0.82019488  0.39508081  0.56821625  1
  C  C626  1  0.58101046  0.35731172  0.55449587  1
  N  N627  1  0.54365778  0.29837986  0.69177556  1
  C  C628  1  0.98759043  0.20534829  0.64796899  1
  N  N629  1  0.93739752  0.45775891  0.66056928  1
  C  C630  1  0.95427255  0.37370362  0.55437041  1
  H  H631  1  0.53210671  0.10761376  0.71551155  1
  C  C632  1  0.80738491  0.29219630  0.51708280  1
  C  C633  1  0.67346485  0.47618509  0.62778406  1
  C  C634  1  0.82981087  0.40777757  0.70735481  1
  H  H635  1  0.96727562  0.02476474  0.56813741  1
  H  H636  1  0.51951194  0.06316429  0.64090723  1
  C  C637  1  0.94693114  0.09091276  0.70862214  1
  H  H638  1  0.92836420  0.37347129  0.59613872  1
  C  C639  1  0.88734973  0.47386120  0.63451518  1
  H  H640  1  0.86640675  0.15458689  0.68455647  1
  C  C641  1  0.81498709  0.21046662  0.51637573  1
  H  H642  1  0.72140289  0.28979537  0.58045656  1
  N  N643  1  0.74998581  0.01592529  0.57969039  1
  H  H644  1  0.66720634  0.16515315  0.55234360  1
  C  C645  1  0.76944761  0.38080116  0.73274386  1
  C  C646  1  0.84073532  0.28654068  0.61454345  1
  C  C647  1  0.83194974  0.45078494  0.65715613  1
  C  C648  1  0.64287136  0.36542631  0.56525841  1
  H  H649  1  0.74565919  0.30986745  0.66137745  1
  H  H650  1  0.51959208  0.23976694  0.62128198  1
  C  C651  1  0.88458144  0.10789322  0.71272855  1
  H  H652  1  0.64986600  0.05229010  0.58354002  1
  C  C653  1  0.96646769  0.02788539  0.74026580  1
  H  H654  1  0.95008048  0.23921725  0.66425263  1
  N  N655  1  0.64373046  0.12367081  0.71943692  1
  H  H656  1  0.79049035  0.47262265  0.63796830  1
  C  C657  1  0.72444959  0.46651537  0.53751767  1
  H  H658  1  0.55554355  0.41066338  0.55267974  1
  C  C659  1  0.93698670  0.41069462  0.70461826  1
  C  C660  1  0.83412417  0.17325646  0.56506242  1
  H  H661  1  0.67317304  0.17914510  0.65034155  1
  H  H662  1  0.76015504  0.05998358  0.65503930  1
  H  H663  1  0.98478323  0.39643565  0.71641648  1
  N  N664  1  0.59189980  0.22371202  0.53165181  1
  H  H665  1  0.85531122  0.30587216  0.65871019  1
  C  C666  1  0.50109931  0.28014898  0.65291507  1
  H  H667  1  0.50893592  0.26973243  0.52828750  1
  C  C668  1  0.64165816  0.05801794  0.63068805  1
  C  C669  1  0.82682778  0.33221703  0.56697626  1
  C  C670  1  0.72982559  0.33200025  0.70260676  1
  C  C671  1  0.67469871  0.29471588  0.56701794  1
  N  N672  1  0.84037043  0.20864746  0.61550429  1
  H  H673  1  0.63847176  0.27899777  0.71017030  1
  C  C674  1  0.64829876  0.22459574  0.55137843  1
  C  C675  1  0.65688550  0.12276645  0.66264906  1
  H  H676  1  0.83737243  0.10966330  0.57022836  1
  C  C677  1  0.68234372  0.43539938  0.57629975  1
  C  C678  1  0.67426776  0.31648727  0.72812494  1
  C  C679  1  0.99272990  0.12888199  0.66847970  1
  C  C680  1  0.88451585  0.38494984  0.73358745  1
  H  H681  1  0.64551967  0.44875636  0.65984818  1
  C  C682  1  0.84866213  0.06031425  0.74672203  1
  C  C683  1  0.77017928  0.00709949  0.63280637  1
  H  H684  1  0.98278208  0.12093311  0.50822142  1
  C  C685  1  0.62203601  0.06354345  0.74743201  1
  C  C686  1  0.53219412  0.34181913  0.73481199  1
  H  H687  1  0.92285183  0.47630396  0.50835383  1
  H  H688  1  0.89739655  0.30113245  0.50222108  1
  C  C689  1  0.93726825  0.33559304  0.50498285  1
  C  C690  1  0.98501706  0.42626024  0.82983480  1
  H  H691  1  0.69925772  0.05274671  0.86034289  1
  H  H692  1  0.88798778  0.35588268  0.77681999  1
  H  H693  1  0.85131544  0.40360760  0.90408264  1
  C  C694  1  0.92495293  0.44619127  0.84848590  1
  C  C695  1  0.63644804  0.49527266  0.93071441  1
  H  H696  1  0.58909553  0.17309684  0.98681084  1
  Cu  Cu697  1  0.94744315  0.13758220  0.97205181  1
  C  C698  1  0.75079525  0.41409634  0.78436628  1
  N  N699  1  0.89613954  0.13690610  0.87951605  1
  C  C700  1  0.69279100  0.39877574  0.80483199  1
  H  H701  1  0.61431697  0.07789795  0.79279555  1
  H  H702  1  0.57242556  0.35103293  0.76020575  1
  H  H703  1  0.58364547  0.27460951  0.83734648  1
  H  H704  1  0.90384205  0.21034036  0.81533042  1
  C  C705  1  0.77598253  0.18392248  0.89430672  1
  C  C706  1  0.85790066  0.10075695  0.91522279  1
  H  H707  1  0.77300111  0.08697106  0.95363946  1
  H  H708  1  0.52214906  0.05625791  0.91597201  1
  H  H709  1  0.55063670  0.49046383  0.77858358  1
  C  C710  1  0.54062098  0.05431819  0.96001933  1
  C  C711  1  0.80013664  0.12014425  0.92536079  1
  C  C712  1  0.89598527  0.39142860  0.88335151  1
  Cu  Cu713  1  0.97519685  0.08215175  0.87066706  1
  H  H714  1  0.67337604  0.42484181  0.84349743  1
  C  C715  1  0.61702700  0.19157357  0.95164585  1
  H  H716  1  0.55196456  0.18109682  0.81007953  1
  C  C717  1  0.61622631  0.24739914  0.86514078  1
  C  C718  1  0.67821709  0.17357147  0.94989242  1
  H  H719  1  0.90329254  0.28195494  0.92681266  1
  C  C720  1  0.71154592  0.19948352  0.90095638  1
  C  C721  1  0.86986919  0.19171588  0.84747028  1
  H  H722  1  0.88595080  0.05108986  0.93516817  1
  H  H723  1  0.83507792  0.23126353  0.96793529  1
  H  H724  1  0.78209497  0.45080248  0.80844999  1
  H  H725  1  0.69881295  0.26041274  0.81844474  1
  C  C726  1  0.67732623  0.23699034  0.85634022  1
  N  N727  1  0.58257458  0.22395040  0.91070452  1
  H  H728  1  0.79683472  0.27175880  0.82982080  1
  C  C729  1  0.81304555  0.22200050  0.85319014  1
  N  N730  1  0.65568695  0.35447242  0.77359715  1
  H  H731  1  0.70134859  0.13713742  0.98155019  1
  H  H732  1  0.61309758  0.46874371  0.96603372  1
  Cu  Cu733  1  0.52229081  0.35054004  0.95329218  1
  C  C734  1  0.92369605  0.32440431  0.89876895  1
  N  N735  1  0.98115520  0.30586875  0.87982167  1
  C  C736  1  0.59355911  0.01944071  0.97871709  1
  H  H737  1  0.80157912  0.07209176  0.75896630  1
  C  C738  1  0.50725894  0.16249361  0.79418670  1
  N  N739  1  0.50129762  0.08834592  0.99832497  1
  H  H740  1  0.77924949  0.97751880  0.16547675  1
  H  H741  1  0.55501570  0.60462400  0.02824028  1
  H  H742  1  0.87372507  0.68870028  0.18860733  1
  H  H743  1  0.66125526  0.86582376  0.05040520  1
  C  C744  1  0.50522952  0.59934209  0.03481273  1
  H  H745  1  0.95106219  0.60061525  0.16863622  1
  C  C746  1  0.63799541  0.81695832  0.15541097  1
  C  C747  1  0.52000114  0.55114188  0.14123304  1
  H  H748  1  0.96182097  0.77505268  0.15791924  1
  C  C749  1  0.75548372  0.97338276  0.12394163  1
  C  C750  1  0.94843653  0.94889493  0.07485510  1
  C  C751  1  0.69243459  0.77790276  0.16046527  1
  H  H752  1  0.63085372  0.88012685  0.16283140  1
  C  C753  1  0.97643637  0.76464171  0.07012380  1
  H  H754  1  0.77256072  0.68692267  0.21062030  1
  H  H755  1  0.60136204  0.51350097  0.10269040  1
  C  C756  1  0.93954397  0.56220886  0.20512370  1
  C  C757  1  0.58991777  0.69723277  0.13615863  1
  H  H758  1  0.52611074  0.91055946  0.19670527  1
  H  H759  1  0.57157654  0.92607437  0.09713690  1
  H  H760  1  0.93429001  0.77759994  0.04886898  1
  C  C761  1  0.53014019  0.81068253  0.10703586  1
  C  C762  1  0.77710417  0.94014600  0.03476166  1
  C  C763  1  0.92998540  0.52376792  0.02259686  1
  C  C764  1  0.99332417  0.69134355  0.08904770  1
  H  H765  1  0.82694074  0.56899067  0.07686781  1
  H  H766  1  0.53828398  0.78857208  0.21507804  1
  H  H767  1  0.73903352  0.79985972  0.17016428  1
  H  H768  1  0.96440038  0.63891191  0.08702692  1
  C  C769  1  0.58748868  0.77874269  0.13352483  1
  N  N770  1  0.82882481  0.73951575  0.00817185  1
  H  H771  1  0.77102468  0.70181485  0.06483824  1
  C  C772  1  0.89790715  0.59744993  0.01694225  1
  H  H773  1  0.91631220  0.92680683  0.10764718  1
  N  N774  1  0.69406840  0.70228479  0.15869204  1
  C  C775  1  0.81391129  0.68416711  0.04363074  1
  H  H776  1  0.65511198  0.60010581  0.15996638  1
  C  C777  1  0.84431845  0.61237789  0.04705028  1
  H  H778  1  0.81111535  0.91339563  0.00570717  1
  C  C779  1  0.94300939  0.77429156  0.20255352  1
  H  H780  1  0.54801698  0.66681912  0.12937399  1
  C  C781  1  0.89394746  0.72634543  0.21856522  1
  C  C782  1  0.64406513  0.66223235  0.15336985  1
  C  C783  1  0.56021277  0.94605647  0.21821122  1
  N  N784  1  0.79376226  0.93580799  0.08921171  1
  C  C785  1  0.72247433  0.97351487  0.01670168  1
  C  C786  1  0.53122645  0.88835383  0.08762901  1
  C  C787  1  0.64863664  0.82191293  0.01919987  1
  C  C788  1  0.52091924  0.53106444  0.24688329  1
  C  C789  1  0.57844881  0.51939793  0.14265392  1
  H  H790  1  0.73770165  0.51072434  0.19558315  1
  N  N791  1  0.57360917  0.50049175  0.24493638  1
  N  N792  1  0.96907187  0.82142232  0.23782924  1
  H  H793  1  0.67309101  0.63656110  0.24744032  1
  H  H794  1  0.54984641  0.83400638  0.00422116  1
  N  N795  1  0.69598459  0.77713050  0.00964741  1
  C  C796  1  0.62707569  0.74148377  0.35309127  1
  C  C797  1  0.96470881  0.62103345  0.38549941  1
  N  N798  1  0.83706609  0.74421252  0.47942028  1
  N  N799  1  0.52427852  0.98602689  0.45423430  1
  H  H800  1  0.79317253  0.83215108  0.35650742  1
  H  H801  1  0.61409046  0.82142387  0.49906914  1
  C  C802  1  0.62616177  0.81747529  0.33532171  1
  C  C803  1  0.60443117  0.52550634  0.49497812  1
  H  H804  1  0.66787592  0.92369411  0.43087629  1
  C  C805  1  0.92540524  0.99997021  0.39769724  1
  H  H806  1  0.75640693  0.97902737  0.41483326  1
  H  H807  1  0.65137713  0.71528918  0.39034020  1
  Cu  Cu808  1  0.63115539  0.58494716  0.34724082  1
  C  C809  1  0.81821507  0.83000167  0.39778501  1
  C  C810  1  0.53381371  0.51777295  0.40070261  1
  H  H811  1  0.98140374  0.86303735  0.31599887  1
  C  C812  1  0.80609992  0.77134258  0.43552656  1
  C  C813  1  0.94653117  0.54592685  0.36820637  1
  N  N814  1  0.59699473  0.68470949  0.32358903  1
  H  H815  1  0.93513208  0.99946750  0.44329065  1
  H  H816  1  0.76851825  0.73267896  0.43189303  1
  C  C817  1  0.94376216  0.57839278  0.26316449  1
  C  C818  1  0.56691038  0.70276671  0.27424581  1
  C  C819  1  0.59349499  0.83851717  0.28349789  1
  N  N820  1  0.57319073  0.58709666  0.48122812  1
  H  H821  1  0.51414219  0.63969585  0.42756094  1
  C  C822  1  0.93489002  0.51382201  0.47107225  1
  C  C823  1  0.86743520  0.87901488  0.41062994  1
  H  H824  1  0.55274035  0.87846539  0.42635308  1
  H  H825  1  0.94439993  0.87710901  0.47145562  1
  C  C826  1  0.87204907  0.95072655  0.31450427  1
  C  C827  1  0.62751354  0.96239554  0.43586214  1
  C  C828  1  0.71175255  0.64047211  0.27466337  1
  C  C829  1  0.88809685  0.94253749  0.37303499  1
  H  H830  1  0.74595779  0.59008216  0.40020651  1
  C  C831  1  0.81264312  0.65083139  0.34881468  1
  C  C832  1  0.90747833  0.77206596  0.31401197  1
  H  H833  1  0.89318852  0.77308527  0.36042694  1
  C  C834  1  0.96473663  0.63336140  0.44537784  1
  H  H835  1  0.65214702  0.85816305  0.35946274  1
  C  C836  1  0.75698506  0.61826439  0.36062288  1
  H  H837  1  0.85175545  0.65758618  0.37759923  1
  C  C838  1  0.76939051  0.66904120  0.25577799  1
  C  C839  1  0.54179100  0.58402046  0.43461826  1
  C  C840  1  0.90168651  0.85418995  0.45899324  1
  H  H841  1  0.96997195  0.69021483  0.46312208  1
  H  H842  1  0.96595820  0.67001905  0.35639556  1
  C  C843  1  0.88461047  0.78903864  0.48966580  1
  H  H844  1  0.84070998  0.91353395  0.29218744  1
  C  C845  1  0.56783743  0.93938210  0.43514029  1
  C  C846  1  0.82044022  0.67567152  0.29092558  1
  N  N847  1  0.70997177  0.61381114  0.32646018  1
  C  C848  1  0.95377993  0.81722457  0.29332023  1
  C  C849  1  0.87364045  0.72489242  0.27388433  1
  H  H850  1  0.66075201  0.95130613  0.32651181  1
  C  C851  1  0.93527520  0.52358546  0.30750426  1
  C  C852  1  0.63298653  0.97333218  0.29172551  1
  C  C853  1  0.59469170  0.91898467  0.26421949  1
  H  H854  1  0.95369048  0.63488656  0.27754817  1
  H  H855  1  0.51715555  0.79769597  0.45324783  1
  N  N856  1  0.95223246  0.58334159  0.48583551  1
  H  H857  1  0.50075846  0.51251453  0.36852362  1
  H  H858  1  0.50592429  0.79342149  0.34566935  1
  H  H859  1  0.76360283  0.99058623  0.49659861  1
  H  H860  1  0.54220381  0.65431760  0.25584959  1
  C  C861  1  0.56391554  0.77773013  0.25352038  1
  C  C862  1  0.98196132  0.97224767  0.54780296  1
  Cu  Cu863  1  0.95961219  0.60620424  0.56501099  1
  C  C864  1  0.90013125  0.81948810  0.67874496  1
  H  H865  1  0.80739636  0.74214026  0.57667063  1
  H  H866  1  0.96607935  0.73980106  0.72734326  1
  C  C867  1  0.75900683  0.53071493  0.55554589  1
  N  N868  1  0.57158425  0.78061445  0.56649247  1
  N  N869  1  0.56585066  0.61893616  0.67204348  1
  H  H870  1  0.63148219  0.53621141  0.53314303  1
  H  H871  1  0.79489843  0.92799888  0.70417119  1
  Cu  Cu872  1  0.96700192  0.60288144  0.67970087  1
  C  C873  1  0.59492003  0.92920635  0.62373752  1
  H  H874  1  0.61847692  0.70473994  0.66090051  1
  C  C875  1  0.93203597  0.75261734  0.69278136  1
  C  C876  1  0.84369639  0.74810150  0.60933289  1
  H  H877  1  0.65894979  0.81175353  0.60403704  1
  H  H878  1  0.86577208  0.63337878  0.60553408  1
  C  C879  1  0.77570314  0.96984021  0.54116700  1
  H  H880  1  0.54084949  0.87822304  0.69178703  1
  C  C881  1  0.68863741  0.80407804  0.64184189  1
  C  C882  1  0.81980080  0.89051945  0.61795275  1
  C  C883  1  0.54161394  0.56354544  0.70313024  1
  C  C884  1  0.55295439  0.80142985  0.61905318  1
  H  H885  1  0.66705076  0.89904971  0.69498137  1
  H  H886  1  0.83845150  0.88241778  0.52399008  1
  H  H887  1  0.57587422  0.95134781  0.73943788  1
  C  C888  1  0.85661512  0.81968383  0.63416988  1
  C  C889  1  0.61490166  0.91037620  0.56841452  1
  C  C890  1  0.60515857  0.66525983  0.69460437  1
  H  H891  1  0.53680333  0.74909405  0.63931761  1
  H  H892  1  0.90283278  0.76213356  0.52766101  1
  C  C893  1  0.59986691  0.84051323  0.54191436  1
  N  N894  1  0.74516171  0.57083166  0.60311204  1
  C  C895  1  0.70770984  0.54282058  0.64198319  1
  C  C896  1  0.74709012  0.71378517  0.67971258  1
  N  N897  1  0.92169925  0.69046954  0.66442708  1
  C  C898  1  0.87899253  0.68645817  0.62510071  1
  H  H899  1  0.76917261  0.66024482  0.67427663  1
  H  H900  1  0.90773589  0.87612821  0.70043700  1
  H  H901  1  0.70989273  0.57344946  0.68254862  1
  H  H902  1  0.64333608  0.94832072  0.54297645  1
  H  H903  1  0.50086560  0.95503001  0.56957240  1
  N  N904  1  0.71363998  0.73578540  0.63623627  1
  C  C905  1  0.55707836  0.87012850  0.64755800  1
  Cu  Cu906  1  0.57457212  0.67977998  0.52209388  1
  C  C907  1  0.79573284  0.94121185  0.65847552  1
  C  C908  1  0.69094338  0.84639878  0.69255871  1
  Cu  Cu909  1  0.52504882  0.62445668  0.60171342  1
  C  C910  1  0.81221990  0.90965521  0.55939246  1
  H  H911  1  0.92622441  0.89561109  0.60471216  1
  C  C912  1  0.96152877  0.90401349  0.57122424  1
  C  C913  1  0.75003817  0.75396506  0.73236977  1
  H  H914  1  0.79339958  0.56452064  0.53184669  1
  H  H915  1  0.89665147  0.51144231  0.59812027  1
  H  H916  1  0.83421479  0.65070960  0.73949362  1
  N  N917  1  0.98611611  0.83503034  0.55990207  1
  C  C918  1  0.59857141  0.99917288  0.71791550  1
  C  C919  1  0.60895796  0.99909809  0.65915612  1
  H  H920  1  0.50471643  0.52743400  0.68324087  1
  H  H921  1  0.89321628  0.51862275  0.74587710  1
  C  C922  1  0.72515272  0.82649759  0.74254710  1
  C  C923  1  0.63029027  0.65416389  0.74970107  1
  H  H924  1  0.60680062  0.86838202  0.86905326  1
  H  H925  1  0.98612350  0.56608486  0.78242880  1
  C  C926  1  0.63652320  0.56455182  0.83742804  1
  C  C927  1  0.59198694  0.80208564  0.99378069  1
  C  C928  1  0.96627670  0.68066878  0.81950770  1
  H  H929  1  0.56031838  0.76632842  0.80464836  1
  C  C930  1  0.96289475  0.84290006  0.91905996  1
  H  H931  1  0.55878096  0.51368186  0.87928895  1
  C  C932  1  0.59317108  0.74488924  0.95023833  1
  N  N933  1  0.70839590  0.95772651  0.90028573  1
  C  C934  1  0.70712445  0.99292179  0.84882863  1
  H  H935  1  0.56809009  0.64903189  0.85372912  1
  C  C936  1  0.60810542  0.51914657  0.88086554  1
  H  H937  1  0.92909352  0.66232942  0.84646768  1
  N  N938  1  0.54470769  0.94870842  0.84785854  1
  C  C939  1  0.56804592  0.88054854  0.84287192  1
  C  C940  1  0.84773123  0.62118013  0.77917122  1
  H  H941  1  0.74101002  0.77858594  0.85443767  1
  C  C942  1  0.99767733  0.62823771  0.78521712  1
  C  C943  1  0.94884726  0.81137233  0.86463409  1
  H  H944  1  0.77106539  0.55005977  0.91320274  1
  H  H945  1  0.66571884  0.69276157  0.76433058  1
  C  C946  1  0.86310102  0.56225314  0.88325995  1
  C  C947  1  0.54166803  0.82617333  0.80590332  1
  C  C948  1  0.72662529  0.84001435  0.84908733  1
  C  C949  1  0.88720417  0.51615788  0.83811030  1
  C  C950  1  0.71536828  0.95910492  0.79643621  1
  H  H951  1  0.70865220  0.99648920  0.75808950  1
  H  H952  1  0.93662328  0.92702891  0.79096104  1
  H  H953  1  0.95949813  0.65793869  0.95345625  1
  N  N954  1  0.86806011  0.99191541  0.76696762  1
  N  N955  1  0.82575252  0.66579090  0.82134048  1
  C  C956  1  0.89318396  0.82983514  0.83995182  1
  H  H957  1  0.81301680  0.90771001  0.85406541  1
  C  C958  1  0.92101350  0.89150313  0.94474108  1
  H  H959  1  0.88018215  0.79980823  0.80213657  1
  C  C960  1  0.71584268  0.88073842  0.90070594  1
  C  C961  1  0.83177569  0.63116235  0.87340237  1
  C  C962  1  0.98280761  0.75675264  0.82607125  1
  C  C963  1  0.87972765  0.55293879  0.78351996  1
  H  H964  1  0.71674912  0.85671179  0.94425018  1
  H  H965  1  0.62077631  0.98437061  0.94800486  1
  H  H966  1  0.77370581  0.72636762  0.76966761  1
  C  C967  1  0.53503449  0.73756179  0.91635719  1
  C  C968  1  0.72560867  0.87763127  0.79497986  1
  N  N969  1  0.87225731  0.91532549  0.91980287  1
  H  H970  1  0.64640893  0.64601326  0.91590157  1
  H  H971  1  0.86991016  0.54149629  0.92572403  1
  H  H972  1  0.81043302  0.66509641  0.90499505  1
  C  C973  1  0.85697381  0.88272521  0.87060422  1
  C  C974  1  0.64415876  0.69869290  0.94079840  1
  C  C975  1  0.69834875  0.57681699  0.84714037  1
  H  H976  1  0.72530579  0.60923849  0.81577670  1
  N  N977  1  0.69523543  0.51012178  0.94011444  1
  C  C978  1  0.88070609  0.72428098  0.97922000  1
  C  C979  1  0.72369707  0.54584691  0.89867438  1
  H  H980  1  0.88514733  0.77749517  0.95165963  1
  C  C981  1  0.60978921  0.59142002  0.78178972  1
  H  H982  1  0.71317271  0.97514296  0.97179586  1
  C  C983  1  0.91617750  0.65748042  0.97802584  1
  C  C984  1  0.69282833  0.71753080  0.97511092  1
  C  C985  1  0.52948099  0.67954730  0.87342789  1
  H  H986  1  0.73090513  0.67994039  0.98007568  1
  H  H987  1  0.92419914  0.92129595  0.98657103  1
  H  H988  1  0.99689532  0.92767564  0.86331277  1
  C  C989  1  0.56412882  0.54349017  0.75573887  1
  C  C990  1  0.98475507  0.51175351  0.99344667  1
  C  C991  1  0.92380504  0.97956763  0.76953614  1
