# generated using pymatgen
data_Cu3H48C78(NO6)2
_symmetry_space_group_name_H-M   'P 1'
_cell_length_a   30.21554869
_cell_length_b   23.84423517
_cell_length_c   35.09423803
_cell_angle_alpha   90.00000000
_cell_angle_beta   90.00000000
_cell_angle_gamma   90.00000000
_symmetry_Int_Tables_number   1
_chemical_formula_structural   Cu3H48C78(NO6)2
_chemical_formula_sum   'Cu48 H768 C1248 N32 O192'
_cell_volume   25284.22805865
_cell_formula_units_Z   16
loop_
 _symmetry_equiv_pos_site_id
 _symmetry_equiv_pos_as_xyz
  1  'x, y, z'
loop_
 _atom_site_type_symbol
 _atom_site_label
 _atom_site_symmetry_multiplicity
 _atom_site_fract_x
 _atom_site_fract_y
 _atom_site_fract_z
 _atom_site_occupancy
  O  O0  1  0.10069643  0.13019080  0.09808462  1
  C  C1  1  0.11807715  0.16644797  0.11491079  1
  C  C2  1  0.14650554  0.15609475  0.14916067  1
  O  O3  1  0.11745623  0.21956273  0.10212173  1
  C  C4  1  0.15240258  0.10166169  0.16426573  1
  C  C5  1  0.07345604  0.31352741  0.15093739  1
  H  H6  1  0.13406060  0.06702335  0.15079604  1
  C  C7  1  0.11369008  0.37367784  0.11115256  1
  C  C8  1  0.14360365  0.39332559  0.13970313  1
  H  H9  1  0.05269930  0.33043399  0.09138882  1
  C  C10  1  0.07498986  0.34189089  0.11565442  1
  C  C11  1  0.12048173  0.39660978  0.07242378  1
  O  O12  1  0.09390005  0.38358281  0.04743241  1
  C  C13  1  0.14151873  0.36568747  0.17426963  1
  C  C14  1  0.10534542  0.32610318  0.17923738  1
  H  H15  1  0.04394373  0.28628043  0.15753632  1
  C  C16  1  0.17708467  0.09063325  0.19699302  1
  C  C17  1  0.19449449  0.13781104  0.21834695  1
  H  H18  1  0.18110491  0.04681643  0.20614710  1
  H  H19  1  0.16626289  0.37178642  0.19575386  1
  C  C20  1  0.16294986  0.20457807  0.16882740  1
  H  H21  1  0.07433849  0.21259149  0.18876539  1
  C  C22  1  0.08980835  0.23464682  0.21357640  1
  H  H23  1  0.16674178  0.42479427  0.13316542  1
  O  O24  1  0.15744998  0.42399842  0.06504890  1
  C  C25  1  0.18760492  0.19161864  0.20213717  1
  Cu  Cu26  1  0.14194451  0.24339545  0.06061167  1
  C  C27  1  0.10247268  0.29107176  0.21552284  1
  H  H28  1  0.15767852  0.24764876  0.15947479  1
  O  O29  1  0.19320941  0.27886703  0.08765484  1
  H  H30  1  0.22550738  0.19827737  0.12916503  1
  H  H31  1  0.18800717  0.09641418  0.10260197  1
  C  C32  1  0.20185154  0.05417311  0.09474142  1
  C  C33  1  0.04480036  0.08095574  0.20132033  1
  O  O34  1  0.07009078  0.07360655  0.22926716  1
  C  C35  1  0.05227564  0.04809784  0.16702053  1
  H  H36  1  0.20203620  0.22793015  0.21690236  1
  Cu  Cu37  1  0.20481251  0.38914008  0.04061309  1
  C  C38  1  0.21894642  0.07800380  0.02230179  1
  C  C39  1  0.21868177  0.04135108  0.05744592  1
  C  C40  1  0.02757506  0.05873463  0.13206091  1
  O  O41  1  0.01642428  0.12116697  0.20137298  1
  H  H42  1  0.02598910  0.04161293  0.06958428  1
  C  C43  1  0.03793044  0.03131622  0.09832614  1
  H  H44  1  0.02575156  0.38237719  0.17758925  1
  O  O45  1  0.15806642  0.25587231  0.01042904  1
  C  C46  1  0.00960849  0.44399359  0.23001759  1
  C  C47  1  0.23151521  0.28440084  0.07495711  1
  H  H48  1  0.00380740  0.09514345  0.13209559  1
  H  H49  1  0.18908022  0.01894000  0.14852911  1
  C  C50  1  0.23496494  0.13532082  0.02150793  1
  C  C51  1  0.22570152  0.46893832  0.17831493  1
  H  H52  1  0.23595345  0.31473293  0.19762224  1
  C  C53  1  0.20345319  0.01136405  0.12155352  1
  C  C54  1  0.08443834  0.00702543  0.16810608  1
  H  H55  1  0.07836482  0.16448799  0.24850347  1
  C  C56  1  0.08992738  0.20788049  0.24967662  1
  H  H57  1  0.22812367  0.45558109  0.14887888  1
  H  H58  1  0.24679172  0.00863085  0.18099658  1
  H  H59  1  0.10005490  0.49699768  0.05365994  1
  O  O60  1  0.22393931  0.44432442  0.00905175  1
  O  O61  1  0.24087639  0.32674182  0.05397621  1
  C  C62  1  0.24889184  0.47872694  0.24263932  1
  C  C63  1  0.00931647  0.39105034  0.24882210  1
  C  C64  1  0.02994767  0.48776958  0.24864328  1
  H  H65  1  0.09975599  0.00002884  0.19618598  1
  H  H66  1  0.11916734  0.36712673  0.24820827  1
  H  H67  1  0.25043094  0.38751049  0.24961813  1
  H  H68  1  0.25230634  0.15565736  0.04677809  1
  O  O69  1  0.49912180  0.05164335  0.04174441  1
  C  C70  1  0.37739054  0.49966232  0.18106844  1
  H  H71  1  0.32308231  0.00386292  0.23215645  1
  C  C72  1  0.25514126  0.19645521  0.11157516  1
  H  H73  1  0.27380060  0.04321749  0.10578150  1
  C  C74  1  0.32310062  0.19342763  0.24750421  1
  C  C75  1  0.34320267  0.37149014  0.09301244  1
  C  C76  1  0.27287880  0.32009811  0.19780632  1
  H  H77  1  0.27655108  0.07681367  0.23896610  1
  C  C78  1  0.41462508  0.40462918  0.06536479  1
  C  C79  1  0.34563038  0.31930781  0.22949421  1
  C  C80  1  0.26551810  0.46023584  0.00462896  1
  H  H81  1  0.41263109  0.47830060  0.13052034  1
  C  C82  1  0.29847068  0.31022109  0.23125553  1
  C  C83  1  0.29403578  0.34031206  0.16636638  1
  O  O84  1  0.43985592  0.44229665  0.19788733  1
  H  H85  1  0.33937089  0.12622246  0.14191589  1
  H  H86  1  0.27366993  0.35168957  0.14147630  1
  H  H87  1  0.38748023  0.24406075  0.06965695  1
  O  O88  1  0.40394580  0.48060846  0.24481854  1
  O  O89  1  0.47290275  0.15203707  0.01185713  1
  C  C90  1  0.47956074  0.16943082  0.08929970  1
  C  C91  1  0.41838566  0.06331232  0.19636598  1
  C  C92  1  0.44271628  0.18235256  0.02610981  1
  Cu  Cu93  1  0.46796307  0.07987052  0.00080843  1
  H  H94  1  0.42819320  0.36290969  0.15877409  1
  H  H95  1  0.28746797  0.42935113  0.20046375  1
  H  H96  1  0.31298589  0.20099514  0.21748421  1
  C  C97  1  0.36836290  0.39657656  0.06348274  1
  H  H98  1  0.26888962  0.11203630  0.13582336  1
  C  C99  1  0.45428185  0.22078778  0.14591702  1
  C  C100  1  0.38896135  0.02964548  0.22167314  1
  O  O101  1  0.41467385  0.21131674  0.00871331  1
  C  C102  1  0.33483130  0.08403417  0.08585327  1
  C  C103  1  0.34456663  0.03213327  0.21740568  1
  H  H104  1  0.43989352  0.02708537  0.07468888  1
  C  C105  1  0.48738341  0.11790292  0.20077310  1
  C  C106  1  0.36545085  0.36161875  0.12864647  1
  C  C107  1  0.36741734  0.34086390  0.19797210  1
  C  C108  1  0.40305476  0.02874566  0.08270706  1
  H  H109  1  0.31662429  0.27108814  0.04470110  1
  H  H110  1  0.39184844  0.26622822  0.13849216  1
  O  O111  1  0.28168169  0.07027950  0.18164224  1
  C  C112  1  0.46506565  0.06670549  0.20820543  1
  C  C113  1  0.32532327  0.18685757  0.06437094  1
  C  C114  1  0.26280047  0.23980308  0.08489650  1
  C  C115  1  0.25635986  0.45574940  0.20651709  1
  C  C116  1  0.46195731  0.23283092  0.18714426  1
  C  C117  1  0.32134348  0.06933064  0.18860395  1
  C  C118  1  0.41795109  0.23979119  0.12459975  1
  C  C119  1  0.39675345  0.10344351  0.17205671  1
  H  H120  1  0.40388352  0.34828609  0.19589955  1
  C  C121  1  0.48619112  0.02053541  0.22999199  1
  H  H122  1  0.47294251  0.14545025  0.18023418  1
  C  C123  1  0.34065091  0.34455286  0.16396093  1
  C  C124  1  0.43818181  0.39027867  0.09894709  1
  C  C125  1  0.41233409  0.37010212  0.12923886  1
  C  C126  1  0.44579894  0.19360257  0.06685691  1
  H  H127  1  0.47409948  0.39717842  0.10164642  1
  H  H128  1  0.35446278  0.17537160  0.04781208  1
  C  C129  1  0.35230423  0.10087442  0.16718961  1
  H  H130  1  0.36232782  0.11517832  0.24167853  1
  O  O131  1  0.29597995  0.43599742  0.01864032  1
  C  C132  1  0.30966201  0.03956047  0.10210076  1
  H  H133  1  0.30782466  0.36807685  0.09100873  1
  C  C134  1  0.42690860  0.22451471  0.21552205  1
  C  C135  1  0.31157956  0.13944989  0.08662757  1
  H  H136  1  0.41668812  0.12781306  0.15140629  1
  C  C137  1  0.43875561  0.42655955  0.03211916  1
  C  C138  1  0.30255398  0.23607853  0.06223409  1
  C  C139  1  0.40962698  0.47166683  0.20759189  1
  H  H140  1  0.35197346  0.40963905  0.03620354  1
  C  C141  1  0.41621735  0.22918261  0.08584850  1
  O  O142  1  0.48072344  0.42926602  0.03349575  1
  H  H143  1  0.39756824  0.11396257  0.06287942  1
  H  H144  1  0.39503282  0.20248678  0.20853907  1
  C  C145  1  0.38016014  0.07766358  0.07628550  1
  C  C146  1  0.27777075  0.14627652  0.11417798  1
  C  C147  1  0.48563269  0.18459082  0.12649798  1
  H  H148  1  0.48104275  0.49285995  0.24335720  1
  O  O149  1  0.41937959  0.44044329  0.00224719  1
  C  C150  1  0.10776662  0.14678578  0.32050192  1
  C  C151  1  0.20768086  0.24136427  0.43146534  1
  N  N152  1  0.10576928  0.20521076  0.31834818  1
  C  C153  1  0.18559203  0.29282328  0.44548860  1
  H  H154  1  0.11316220  0.31303934  0.36621470  1
  C  C155  1  0.11302322  0.35959353  0.36766352  1
  C  C156  1  0.14827031  0.38947408  0.34962517  1
  C  C157  1  0.07917341  0.38930784  0.38624837  1
  C  C158  1  0.15248743  0.44895956  0.35464865  1
  C  C159  1  0.08232913  0.44860929  0.38971347  1
  C  C160  1  0.18693054  0.34711599  0.42759840  1
  C  C161  1  0.20185435  0.18513441  0.44429152  1
  C  C162  1  0.20031840  0.38800061  0.29074328  1
  C  C163  1  0.21632775  0.15356453  0.32367338  1
  H  H164  1  0.20168710  0.17347293  0.34913198  1
  C  C165  1  0.16638135  0.39384843  0.44374713  1
  H  H166  1  0.16731353  0.43332099  0.42883783  1
  C  C167  1  0.12632039  0.11169311  0.29163405  1
  C  C168  1  0.14892012  0.06245204  0.30364486  1
  C  C169  1  0.18106557  0.36050084  0.32478010  1
  C  C170  1  0.10353179  0.22886937  0.38867120  1
  H  H171  1  0.12352228  0.31763820  0.31261779  1
  H  H172  1  0.13373157  0.20409290  0.39353525  1
  H  H173  1  0.05265951  0.36283957  0.39676801  1
  C  C174  1  0.10574664  0.06689414  0.36542723  1
  O  O175  1  0.13069806  0.04159834  0.45065933  1
  C  C176  1  0.08708510  0.23265404  0.35046835  1
  C  C177  1  0.16004377  0.28768861  0.47937894  1
  C  C178  1  0.19648682  0.30543552  0.33613622  1
  H  H179  1  0.18303514  0.28058046  0.35926263  1
  C  C180  1  0.08194765  0.25457312  0.41919611  1
  C  C181  1  0.13914859  0.38670343  0.47620616  1
  O  O182  1  0.01158488  0.45319949  0.41958070  1
  C  C183  1  0.10740726  0.08285178  0.45870818  1
  O  O184  1  0.07617452  0.09512108  0.43895060  1
  C  C185  1  0.09244325  0.12054778  0.35535475  1
  H  H186  1  0.09495506  0.25729914  0.44838217  1
  H  H187  1  0.09096882  0.04650186  0.39071830  1
  C  C188  1  0.20127579  0.16052964  0.28699692  1
  H  H189  1  0.06132545  0.35407436  0.47059702  1
  H  H190  1  0.20217797  0.35371064  0.39953973  1
  H  H191  1  0.07009178  0.14749415  0.37223230  1
  C  C192  1  0.04402485  0.47709077  0.40919933  1
  H  H193  1  0.17530179  0.19240646  0.28440357  1
  C  C194  1  0.13602487  0.03901657  0.34051115  1
  C  C195  1  0.05240463  0.42675045  0.30323290  1
  H  H196  1  0.07033229  0.41731386  0.32949386  1
  H  H197  1  0.18156432  0.47233710  0.34090837  1
  C  C198  1  0.11901751  0.47639494  0.37423873  1
  C  C199  1  0.22267412  0.14059587  0.42872068  1
  H  H200  1  0.21440936  0.09850307  0.43950531  1
  H  H201  1  0.17794450  0.17260201  0.46832419  1
  C  C202  1  0.04505522  0.25725227  0.34466877  1
  C  C203  1  0.02728364  0.34003801  0.46903617  1
  C  C204  1  0.03984490  0.27741686  0.41007618  1
  H  H205  1  0.02475428  0.25467882  0.31745811  1
  H  H206  1  0.17321230  0.04137659  0.28381260  1
  C  C207  1  0.11625594  0.29314360  0.28455165  1
  C  C208  1  0.10709860  0.23387837  0.28294488  1
  H  H209  1  0.18604067  0.42943959  0.28084121  1
  O  O210  1  0.01006420  0.07219148  0.29133746  1
  C  C211  1  0.22039068  0.13095396  0.25549742  1
  C  C212  1  0.03278761  0.38353458  0.28382572  1
  C  C213  1  0.02094438  0.28242386  0.37331958  1
  C  C214  1  0.12191362  0.11365256  0.49537382  1
  C  C215  1  0.05240834  0.47988961  0.28430491  1
  H  H216  1  0.06397122  0.16410083  0.49682795  1
  H  H217  1  0.03165333  0.33989667  0.29803398  1
  C  C218  1  0.23120782  0.27978485  0.31783942  1
  H  H219  1  0.13066024  0.12891525  0.26288209  1
  Cu  Cu220  1  0.06121044  0.03454971  0.27256450  1
  C  C221  1  0.24328843  0.00775688  0.36851641  1
  H  H222  1  0.23429453  0.00913148  0.33829840  1
  C  C223  1  0.23506117  0.36142019  0.27252195  1
  H  H224  1  0.01792070  0.04918198  0.48818572  1
  C  C225  1  0.01215241  0.30108756  0.44167408  1
  C  C226  1  0.24047830  0.25040643  0.40222409  1
  C  C227  1  0.24932774  0.11211558  0.33138205  1
  C  C228  1  0.00047553  0.35451786  0.49941115  1
  C  C229  1  0.13661279  0.33234100  0.49291332  1
  H  H230  1  0.16047224  0.24763271  0.49339265  1
  C  C231  1  0.11720119  0.43545506  0.49298744  1
  O  O232  1  0.12517358  0.48290762  0.47928981  1
  C  C233  1  0.11350171  0.32074724  0.25013188  1
  H  H234  1  0.24244335  0.23835530  0.32739136  1
  H  H235  1  0.24822713  0.29262797  0.39408844  1
  H  H236  1  0.18517972  0.06784782  0.49518601  1
  C  C237  1  0.25133349  0.14934711  0.39621913  1
  H  H238  1  0.46825959  0.00179640  0.42257619  1
  C  C239  1  0.25116277  0.30879137  0.28623640  1
  N  N240  1  0.26108284  0.10644601  0.37065545  1
  H  H241  1  0.46691811  0.16418024  0.30423256  1
  H  H242  1  0.36370592  0.31377420  0.25623756  1
  C  C243  1  0.48838097  0.02737255  0.44296079  1
  C  C244  1  0.36191612  0.14900254  0.29890286  1
  C  C245  1  0.49249905  0.35432837  0.42853843  1
  H  H246  1  0.27847995  0.01291577  0.47729367  1
  C  C247  1  0.49395910  0.40815925  0.41316772  1
  O  O248  1  0.28079467  0.47677738  0.30212259  1
  H  H249  1  0.27253294  0.48091475  0.42417872  1
  C  C250  1  0.26900063  0.01193756  0.44630032  1
  C  C251  1  0.44959417  0.28579752  0.35769053  1
  C  C252  1  0.28548173  0.46327030  0.27024669  1
  C  C253  1  0.27283059  0.08594021  0.30049563  1
  N  N254  1  0.49262913  0.27760083  0.29921684  1
  H  H255  1  0.27986630  0.41301501  0.46903594  1
  C  C256  1  0.42349747  0.00348407  0.34931376  1
  H  H257  1  0.47062305  0.01377055  0.30605525  1
  O  O258  1  0.32034617  0.43648471  0.25616587  1
  C  C259  1  0.43966515  0.23967728  0.25114840  1
  H  H260  1  0.42509179  0.24797689  0.45403899  1
  C  C261  1  0.35522021  0.33156697  0.44289155  1
  C  C262  1  0.44096551  0.25182485  0.48117955  1
  C  C263  1  0.47939870  0.02125778  0.48156948  1
  H  H264  1  0.29524653  0.17184857  0.46899258  1
  C  C265  1  0.37479460  0.42650320  0.39760094  1
  C  C266  1  0.42188408  0.07890674  0.30059538  1
  C  C267  1  0.29099349  0.04549892  0.42000933  1
  C  C268  1  0.26163598  0.43100143  0.49313322  1
  C  C269  1  0.30961810  0.23547574  0.27593490  1
  C  C270  1  0.37824295  0.37149596  0.33862887  1
  C  C271  1  0.47167201  0.29554293  0.49001761  1
  C  C272  1  0.47561373  0.45576647  0.43204574  1
  N  N273  1  0.28700370  0.28416192  0.26519981  1
  C  C274  1  0.42187042  0.20309287  0.39053773  1
  C  C275  1  0.44087833  0.03070897  0.31670935  1
  C  C276  1  0.38549233  0.02464867  0.36782054  1
  C  C277  1  0.39276741  0.10020793  0.47018475  1
  C  C278  1  0.46668581  0.25083444  0.32727795  1
  H  H279  1  0.30270057  0.06164824  0.30484047  1
  C  C280  1  0.47544374  0.34920172  0.46606089  1
  C  C281  1  0.34895798  0.11482718  0.48114179  1
  H  H282  1  0.45834012  0.45270775  0.36415223  1
  H  H283  1  0.45267400  0.11732244  0.43930705  1
  C  C284  1  0.48165504  0.26748289  0.26110236  1
  C  C285  1  0.35587355  0.33002757  0.40305038  1
  C  C286  1  0.32817318  0.15876396  0.46016625  1
  H  H287  1  0.37137320  0.00627186  0.39275181  1
  H  H288  1  0.28578480  0.21048028  0.35980607  1
  C  C289  1  0.42993415  0.26244992  0.38932978  1
  C  C290  1  0.32530501  0.23460012  0.31475988  1
  O  O291  1  0.37670360  0.32895527  0.31954332  1
  H  H292  1  0.34881508  0.29231363  0.38501278  1
  H  H293  1  0.43806131  0.12102376  0.36018225  1
  H  H294  1  0.41650974  0.23011836  0.27548775  1
  C  C295  1  0.43976047  0.16908495  0.36123006  1
  H  H296  1  0.31560807  0.26984049  0.33369251  1
  H  H297  1  0.31752190  0.07393984  0.43150219  1
  C  C298  1  0.47818311  0.48801655  0.35561748  1
  H  H299  1  0.43555757  0.09635427  0.27453772  1
  C  C300  1  0.36865972  0.37526683  0.38025659  1
  H  H301  1  0.34105624  0.09804613  0.36900229  1
  C  C302  1  0.41607061  0.12681834  0.44082854  1
  H  H303  1  0.33262969  0.21929931  0.41361679  1
  H  H304  1  0.34878507  0.29517339  0.46165549  1
  H  H305  1  0.44417700  0.48249515  0.48542847  1
  C  C306  1  0.27113960  0.05188630  0.38308072  1
  O  O307  1  0.38881809  0.41723930  0.32112589  1
  C  C308  1  0.38465623  0.10120560  0.32010609  1
  C  C309  1  0.35172769  0.15015077  0.25885341  1
  C  C310  1  0.45818176  0.39628438  0.48614554  1
  C  C311  1  0.39450814  0.17044691  0.42011278  1
  C  C312  1  0.36524294  0.38566099  0.45968917  1
  C  C313  1  0.45938563  0.19242928  0.32857040  1
  H  H314  1  0.40725591  0.06434619  0.48558701  1
  C  C315  1  0.36904895  0.43586800  0.43694152  1
  C  C316  1  0.45612192  0.44746692  0.46783787  1
  C  C317  1  0.25813245  0.09540986  0.26382691  1
  H  H318  1  0.42109374  0.28746334  0.41425187  1
  H  H319  1  0.38491470  0.45929901  0.38001015  1
  C  C320  1  0.36946350  0.07718178  0.35522432  1
  Cu  Cu321  1  0.37265543  0.44130023  0.27525286  1
  C  C322  1  0.34972375  0.18499878  0.42912740  1
  H  H323  1  0.36208352  0.18644496  0.35552657  1
  C  C324  1  0.26059314  0.20590346  0.38414741  1
  H  H325  1  0.45647531  0.33063177  0.35610637  1
  C  C326  1  0.34977247  0.18864276  0.32681478  1
  H  H327  1  0.47386615  0.47076304  0.29506113  1
  H  H328  1  0.37073001  0.47817256  0.44963555  1
  H  H329  1  0.40328579  0.18035741  0.49979219  1
  H  H330  1  0.26140930  0.00260476  0.25157502  1
  C  C331  1  0.17961261  0.12907807  0.54054492  1
  C  C332  1  0.15318960  0.16972048  0.55814128  1
  C  C333  1  0.11197754  0.18536295  0.54080931  1
  C  C334  1  0.16298425  0.19243127  0.59708668  1
  H  H335  1  0.21391238  0.12502003  0.55284439  1
  C  C336  1  0.12870508  0.21224157  0.62165427  1
  C  C337  1  0.09910222  0.10974249  0.65531487  1
  C  C338  1  0.20888125  0.20314974  0.60651555  1
  C  C339  1  0.08021013  0.08075716  0.62457519  1
  H  H340  1  0.13647824  0.12083332  0.65744948  1
  C  C341  1  0.21889887  0.22959996  0.64001647  1
  C  C342  1  0.18408128  0.25064146  0.66415297  1
  O  O343  1  0.15918520  0.40932173  0.59374634  1
  Cu  Cu344  1  0.10781056  0.42106863  0.57028146  1
  C  C345  1  0.13833342  0.23656431  0.65606993  1
  H  H346  1  0.09163262  0.22144270  0.55167308  1
  H  H347  1  0.09350709  0.20416788  0.61257208  1
  C  C348  1  0.05197486  0.44220383  0.69842766  1
  H  H349  1  0.11236921  0.24919178  0.67644384  1
  C  C350  1  0.07215747  0.12555417  0.68597572  1
  C  C351  1  0.15975446  0.33498187  0.69611083  1
  N  N352  1  0.19129202  0.29127651  0.69282390  1
  C  C353  1  0.09231585  0.40567707  0.69865700  1
  C  C354  1  0.21941683  0.42066014  0.55166437  1
  C  C355  1  0.19117553  0.37983119  0.57602582  1
  O  O356  1  0.07005142  0.30983620  0.55174345  1
  C  C357  1  0.05069336  0.33162355  0.57746257  1
  O  O358  1  0.05712706  0.38437372  0.58716460  1
  C  C359  1  0.13694758  0.34378378  0.66137580  1
  C  C360  1  0.10277266  0.38293780  0.66330744  1
  C  C361  1  0.03381745  0.24179698  0.70541854  1
  H  H362  1  0.14411815  0.32236711  0.63554314  1
  H  H363  1  0.08120379  0.38947038  0.63914091  1
  H  H364  1  0.10095078  0.07054099  0.59992961  1
  H  H365  1  0.21857891  0.05198900  0.70117950  1
  H  H366  1  0.19499134  0.42003152  0.66990707  1
  C  C367  1  0.03304434  0.07266700  0.62073769  1
  C  C368  1  0.01941794  0.29278709  0.59633078  1
  C  C369  1  0.02519673  0.11636100  0.68355652  1
  H  H370  1  0.05797491  0.08402566  0.54397789  1
  H  H371  1  0.03246231  0.23823383  0.67532235  1
  C  C372  1  0.02393886  0.06745979  0.54890669  1
  O  O373  1  0.19550076  0.32947546  0.57750659  1
  H  H374  1  0.14784715  0.47231841  0.67080864  1
  O  O375  1  0.09175269  0.43238241  0.52136672  1
  C  C376  1  0.22952909  0.29477811  0.71513070  1
  C  C377  1  0.22718102  0.43363403  0.66290039  1
  H  H378  1  0.11331113  0.33028247  0.51750948  1
  C  C379  1  0.00591314  0.06671771  0.58661439  1
  C  C380  1  0.01906127  0.45571102  0.66966025  1
  H  H381  1  0.02798907  0.44399346  0.64022137  1
  N  N382  1  0.08426608  0.15848013  0.71820658  1
  H  H383  1  0.23619949  0.19429465  0.58690221  1
  O  O384  1  0.20824611  0.01249776  0.58113133  1
  C  C385  1  0.15159876  0.35994200  0.73319266  1
  C  C386  1  0.00083692  0.04968713  0.51650282  1
  C  C387  1  0.05818098  0.20412567  0.73049958  1
  C  C388  1  0.00636780  0.08541001  0.65414754  1
  H  H389  1  0.01309583  0.37827296  0.52352746  1
  C  C390  1  0.22396810  0.47718577  0.56029964  1
  H  H391  1  0.03234698  0.21520620  0.56581326  1
  C  C392  1  0.23608047  0.49073283  0.65543044  1
  H  H393  1  0.10630501  0.05868879  0.73724284  1
  H  H394  1  0.15602858  0.01885922  0.66770767  1
  H  H395  1  0.07618105  0.01706153  0.67355979  1
  C  C396  1  0.23648909  0.01292543  0.70606460  1
  C  C397  1  0.12308427  0.14757016  0.73697280  1
  H  H398  1  0.14810452  0.01040649  0.54194693  1
  C  C399  1  0.01163518  0.28556252  0.72368681  1
  C  C400  1  0.13113043  0.08856650  0.74654578  1
  C  C401  1  0.23886562  0.39668448  0.51937492  1
  C  C402  1  0.01364163  0.23430727  0.58872704  1
  H  H403  1  0.23805640  0.20368603  0.71152343  1
  C  C404  1  0.16397451  0.09945540  0.50897578  1
  H  H405  1  0.20920574  0.49492614  0.58726032  1
  H  H406  1  0.23399005  0.35145108  0.51589592  1
  C  C407  1  0.11409711  0.39229060  0.73502031  1
  H  H408  1  0.22520644  0.38315162  0.72018205  1
  H  H409  1  0.00400741  0.12872433  0.70668662  1
  C  C410  1  0.09619747  0.15669263  0.50886535  1
  C  C411  1  0.24461181  0.34784341  0.72981468  1
  H  H412  1  0.14363354  0.23532608  0.74608072  1
  C  C413  1  0.04394810  0.46438083  0.73483560  1
  C  C414  1  0.00613132  0.49316023  0.74288863  1
  N  N415  1  0.45486531  0.49986148  0.65971380  1
  C  C416  1  0.49609127  0.44030754  0.56988256  1
  C  C417  1  0.49365335  0.27567290  0.67255642  1
  H  H418  1  0.37936721  0.30149397  0.57890245  1
  H  H419  1  0.25191425  0.34747548  0.65435287  1
  C  C420  1  0.46712887  0.45323538  0.59914601  1
  C  C421  1  0.26470335  0.48894595  0.50096917  1
  C  C422  1  0.25153364  0.24291199  0.72437908  1
  H  H423  1  0.25458550  0.23880730  0.64768459  1
  H  H424  1  0.38935793  0.29830698  0.51091921  1
  H  H425  1  0.39125329  0.14828306  0.66334555  1
  N  N426  1  0.31954369  0.37135050  0.60976821  1
  C  C427  1  0.30939408  0.27515506  0.58504740  1
  O  O428  1  0.36555070  0.03246499  0.72907295  1
  H  H429  1  0.32670632  0.32273351  0.67898490  1
  H  H430  1  0.27099594  0.49622142  0.71940982  1
  C  C431  1  0.40374343  0.38573843  0.68027183  1
  C  C432  1  0.43760081  0.35174194  0.66738116  1
  C  C433  1  0.49024728  0.29158619  0.52792457  1
  C  C434  1  0.25789647  0.39365620  0.65262953  1
  O  O435  1  0.44580047  0.08590133  0.71793450  1
  C  C436  1  0.28245407  0.01741630  0.71240581  1
  C  C437  1  0.30068886  0.47620436  0.73321551  1
  H  H438  1  0.48522978  0.41401504  0.54588190  1
  C  C439  1  0.35323020  0.43815377  0.51977792  1
  H  H440  1  0.43355850  0.43643313  0.60166079  1
  C  C441  1  0.48618841  0.44314158  0.71371025  1
  H  H442  1  0.49043277  0.40840081  0.69371035  1
  H  H443  1  0.34570766  0.48090389  0.62058141  1
  H  H444  1  0.40495892  0.04624024  0.66327109  1
  H  H445  1  0.28109237  0.01724262  0.60164723  1
  C  C446  1  0.46621182  0.49430615  0.69897852  1
  Cu  Cu447  1  0.39315564  0.05729982  0.56480745  1
  H  H448  1  0.49765157  0.25406837  0.58195989  1
  O  O449  1  0.40006448  0.13354826  0.55599074  1
  C  C450  1  0.31094928  0.46932891  0.63169865  1
  C  C451  1  0.36699869  0.11920771  0.65118138  1
  C  C452  1  0.48576027  0.09624022  0.72786397  1
  C  C453  1  0.33964573  0.43761035  0.55748317  1
  C  C454  1  0.44627624  0.20935076  0.54489734  1
  C  C455  1  0.32145924  0.19995406  0.62844927  1
  C  C456  1  0.42817732  0.21169319  0.50678647  1
  C  C457  1  0.44286425  0.29525914  0.72583750  1
  C  C458  1  0.32570665  0.23665870  0.66040354  1
  C  C459  1  0.48573167  0.04987365  0.54811840  1
  C  C460  1  0.31033743  0.21810509  0.59102460  1
  C  C461  1  0.32977255  0.13808212  0.63124216  1
  C  C462  1  0.37099538  0.34107958  0.56375060  1
  C  C463  1  0.37777215  0.33712957  0.52466140  1
  H  H464  1  0.30433113  0.29026259  0.55575506  1
  C  C465  1  0.41318546  0.33156752  0.74167200  1
  C  C466  1  0.36330972  0.41505833  0.74005398  1
  C  C467  1  0.30642640  0.04347500  0.61462861  1
  C  C468  1  0.31260979  0.31380950  0.61622674  1
  C  C469  1  0.45803350  0.30867492  0.68870750  1
  C  C470  1  0.39432435  0.37614283  0.71899355  1
  O  O471  1  0.34565823  0.04758050  0.53310320  1
  H  H472  1  0.45762084  0.25751736  0.73880343  1
  H  H473  1  0.30532495  0.18945576  0.56724074  1
  O  O474  1  0.45003443  0.02386267  0.55570008  1
  H  H475  1  0.33337389  0.43635583  0.68246203  1
  H  H476  1  0.33435957  0.21949633  0.68882837  1
  C  C477  1  0.32318779  0.29318201  0.65357461  1
  C  C478  1  0.37520442  0.06196275  0.64990333  1
  H  H479  1  0.32122504  0.47400504  0.56940742  1
  H  H480  1  0.44867205  0.35585599  0.63747134  1
  O  O481  1  0.44421949  0.16153376  0.60304883  1
  C  C482  1  0.29615292  0.41054771  0.63146273  1
  Cu  Cu483  1  0.48978206  0.11304226  0.61524137  1
  O  O484  1  0.28770942  0.10093096  0.51949777  1
  C  C485  1  0.33141978  0.44236282  0.71493360  1
  H  H486  1  0.30009987  0.05804212  0.71000456  1
  H  H487  1  0.44331847  0.39492685  0.51569703  1
  H  H488  1  0.26690787  0.11426262  0.60237659  1
  C  C489  1  0.34461904  0.02380441  0.63319304  1
  C  C490  1  0.48358441  0.48579355  0.63006712  1
  H  H491  1  0.39200951  0.42016798  0.66265811  1
  C  C492  1  0.29851023  0.10004948  0.61480500  1
  C  C493  1  0.48052852  0.24971739  0.55378437  1
  C  C494  1  0.42999872  0.16670500  0.56922433  1
  C  C495  1  0.34716124  0.38844286  0.57932803  1
  H  H496  1  0.34718498  0.47484214  0.50263899  1
  C  C497  1  0.32508620  0.08950359  0.51344339  1
  C  C498  1  0.36724685  0.38633922  0.50254478  1
  C  C499  1  0.20696904  0.17424184  0.92003827  1
  O  O500  1  0.18685884  0.15250663  0.89043972  1
  Cu  Cu501  1  0.12989464  0.16154855  0.87992615  1
  O  O502  1  0.07713959  0.18366236  0.85969470  1
  Cu  Cu503  1  0.09665094  0.17176992  0.94681840  1
  C  C504  1  0.18957173  0.32745622  0.95910531  1
  C  C505  1  0.14772764  0.30593897  0.95408699  1
  H  H506  1  0.10864036  0.37586923  0.87302906  1
  C  C507  1  0.13079880  0.36159793  0.89700915  1
  C  C508  1  0.17630652  0.38190298  0.90175605  1
  C  C509  1  0.11898252  0.32278966  0.92386608  1
  H  H510  1  0.08428087  0.30932733  0.92270907  1
  O  O511  1  0.09887947  0.11261485  0.91406863  1
  C  C512  1  0.20974576  0.13945941  0.95506524  1
  H  H513  1  0.15071701  0.07120448  0.86457644  1
  C  C514  1  0.20319624  0.36535791  0.93169737  1
  C  C515  1  0.20023511  0.41803873  0.87399597  1
  C  C516  1  0.18276557  0.41744737  0.83611415  1
  H  H517  1  0.15615371  0.38794822  0.82641735  1
  C  C518  1  0.19617730  0.11985897  0.78192393  1
  C  C519  1  0.03424921  0.25020468  0.78791582  1
  C  C520  1  0.08946433  0.05691727  0.91889966  1
  C  C521  1  0.19442962  0.08371296  0.95798846  1
  H  H522  1  0.18004783  0.06318132  0.93247287  1
  O  O523  1  0.05234913  0.20873694  0.91692895  1
  C  C524  1  0.04560072  0.19053265  0.88293321  1
  C  C525  1  0.20280419  0.44996336  0.80890685  1
  C  C526  1  0.05842712  0.20720286  0.77047953  1
  H  H527  1  0.08091321  0.17892986  0.78669530  1
  C  C528  1  0.18682131  0.17789549  0.77487432  1
  H  H529  1  0.20826751  0.20887377  0.78506537  1
  O  O530  1  0.21999209  0.22130260  0.91858383  1
  H  H531  1  0.18815274  0.45158322  0.78008076  1
  O  O532  1  0.06347660  0.04389951  0.94401924  1
  H  H533  1  0.06908242  0.45958117  0.75707088  1
  C  C534  1  0.16549512  0.07480654  0.76977342  1
  H  H535  1  0.03660844  0.25421649  0.81879808  1
  C  C536  1  0.14672115  0.02722123  0.87073979  1
  O  O537  1  0.09837450  0.23747236  0.97766445  1
  C  C538  1  0.24142077  0.10234626  0.79708751  1
  H  H539  1  0.10429978  0.41274853  0.76203393  1
  C  C540  1  0.13207906  0.26763284  0.98263948  1
  C  C541  1  0.23827606  0.45189240  0.88262909  1
  H  H542  1  0.21097543  0.30895309  0.98167058  1
  H  H543  1  0.16643391  0.03263736  0.77930096  1
  C  C544  1  0.11499241  0.01268510  0.89834865  1
  H  H545  1  0.23264805  0.01580184  0.77425230  1
  H  H546  1  0.01414453  0.15104694  0.81387188  1
  H  H547  1  0.17180269  0.34778154  0.75856103  1
  C  C548  1  0.23085724  0.16347721  0.98715839  1
  C  C549  1  0.19886012  0.05048049  0.99001789  1
  H  H550  1  0.18493495  0.00858970  0.99411272  1
  C  C551  1  0.15161140  0.19074861  0.75141990  1
  H  H552  1  0.10987797  0.48293938  0.98337890  1
  C  C553  1  0.24051759  0.48293704  0.81911626  1
  H  H554  1  0.23752942  0.38194792  0.93489433  1
  H  H555  1  0.24212062  0.20699579  0.98360963  1
  C  C556  1  0.00825477  0.28584905  0.76401558  1
  H  H557  1  0.14659489  0.48657050  0.86636566  1
  H  H558  1  0.06373610  0.00348039  0.79322493  1
  C  C559  1  0.00058531  0.17604566  0.87299641  1
  H  H560  1  0.34486641  0.49885701  0.98941121  1
  C  C561  1  0.49448872  0.18019825  0.84712686  1
  C  C562  1  0.39740557  0.48004593  0.90357297  1
  H  H563  1  0.25543057  0.44938793  0.90921452  1
  C  C564  1  0.28322873  0.24472642  0.75276602  1
  H  H565  1  0.32935063  0.45187921  0.82927717  1
  H  H566  1  0.25667254  0.17782901  0.83270805  1
  H  H567  1  0.28820103  0.38857506  0.77276345  1
  C  C568  1  0.43964112  0.10909930  0.85642720  1
  C  C569  1  0.29335735  0.29670916  0.77132293  1
  H  H570  1  0.29850100  0.20811900  0.76611692  1
  H  H571  1  0.33857967  0.15152633  0.83391612  1
  C  C572  1  0.33360496  0.45196887  0.79785541  1
  O  O573  1  0.42610616  0.09394251  0.96073879  1
  H  H574  1  0.41784662  0.23669012  0.83869370  1
  H  H575  1  0.33547219  0.36703151  0.88776522  1
  C  C576  1  0.25634005  0.04819642  0.78375009  1
  C  C577  1  0.25853037  0.48677124  0.85679239  1
  H  H578  1  0.28357593  0.36581805  0.83487492  1
  Cu  Cu579  1  0.40546167  0.38922737  0.96218572  1
  C  C580  1  0.37619198  0.29792892  0.86891763  1
  H  H581  1  0.46446838  0.13507659  0.79816928  1
  O  O582  1  0.46889105  0.30401756  0.98203262  1
  C  C583  1  0.31419827  0.12342282  0.82106372  1
  O  O584  1  0.43274918  0.27342721  0.91140612  1
  C  C585  1  0.46435059  0.14197429  0.83029711  1
  C  C586  1  0.35976778  0.26042701  0.80727366  1
  C  C587  1  0.44547354  0.11625637  0.89504369  1
  O  O588  1  0.38685974  0.45312357  0.93606236  1
  C  C589  1  0.40067284  0.30410885  0.90383832  1
  O  O590  1  0.41067430  0.03315356  0.91730397  1
  H  H591  1  0.47584697  0.27382404  0.80341320  1
  H  H592  1  0.40138099  0.32551748  0.77136868  1
  C  C593  1  0.36481197  0.41904051  0.77998497  1
  C  C594  1  0.42618464  0.07709270  0.92546347  1
  C  C595  1  0.38806661  0.26151397  0.83894213  1
  C  C596  1  0.27024076  0.13876340  0.81946567  1
  H  H597  1  0.47954015  0.15598126  0.94125235  1
  C  C598  1  0.31242168  0.33707634  0.83471339  1
  C  C599  1  0.47367860  0.15693527  0.91010477  1
  O  O600  1  0.38596819  0.46378207  0.87323545  1
  O  O601  1  0.38423558  0.33405237  0.93087342  1
  C  C602  1  0.32131615  0.29626178  0.80616584  1
  C  C603  1  0.30239269  0.03826454  0.78658756  1
  C  C604  1  0.33922729  0.33522422  0.86686959  1
  Cu  Cu605  1  0.42446093  0.24536119  0.96079443  1
  Cu  Cu606  1  0.40872692  0.07203616  0.75920615  1
  C  C607  1  0.33370202  0.07499927  0.80483519  1
  H  H608  1  0.39078212  0.39726910  0.79619291  1
  O  O609  1  0.37634746  0.06854490  0.80422679  1
  H  H610  1  0.41483785  0.07729528  0.84765447  1
  C  C611  1  0.30281822  0.48133792  0.77478519  1
  H  H612  1  0.36717964  0.23408923  0.78176620  1
  C  C613  1  0.27721266  0.35007533  0.75853989  1
  C  C614  1  0.49858260  0.44889039  0.84397292  1
  C  C615  1  0.49947650  0.49481551  0.81732649  1
  H  H616  1  0.48436013  0.40785837  0.83750148  1
  C  C617  1  0.48502366  0.48806966  0.77640533  1
  O  O618  1  0.49997907  0.38260471  0.96008279  1
  C  C619  1  0.49921489  0.19190498  0.88664070  1
  C  C620  1  0.49405233  0.43968315  0.75285705  1
  N  N621  1  0.18052895  0.66206978  0.04612388  1
  C  C622  1  0.06145782  0.82230926  0.16647191  1
  C  C623  1  0.14610241  0.68778691  0.10211577  1
  C  C624  1  0.15720399  0.70428470  0.06512712  1
  C  C625  1  0.12511693  0.72631326  0.12601238  1
  C  C626  1  0.14505690  0.76125594  0.05249022  1
  C  C627  1  0.11692041  0.78278416  0.11647234  1
  C  C628  1  0.12450306  0.79773712  0.07618143  1
  H  H629  1  0.11407018  0.83910484  0.06496472  1
  H  H630  1  0.11495178  0.70934705  0.15413738  1
  C  C631  1  0.10351108  0.82410243  0.14735471  1
  C  C632  1  0.08698821  0.95550580  0.06618650  1
  H  H633  1  0.03417727  0.79877983  0.15341904  1
  H  H634  1  0.16821702  0.65249599  0.19857541  1
  C  C635  1  0.09482485  0.63925162  0.20654896  1
  H  H636  1  0.08928185  0.60751805  0.18543207  1
  H  H637  1  0.15499693  0.64470594  0.11300003  1
  C  C638  1  0.13468147  0.94735922  0.06210365  1
  C  C639  1  0.05809396  0.93531956  0.03596085  1
  C  C640  1  0.13760762  0.66126453  0.21563693  1
  H  H641  1  0.14231033  0.56502977  0.06888333  1
  C  C642  1  0.05894783  0.65298031  0.23119683  1
  C  C643  1  0.15154531  0.91282123  0.03437635  1
  C  C644  1  0.13883975  0.86152535  0.16012551  1
  H  H645  1  0.18779113  0.90113053  0.03337466  1
  C  C646  1  0.13164605  0.55689196  0.09817454  1
  C  C647  1  0.08677976  0.55554923  0.11144369  1
  H  H648  1  0.19786821  0.53893819  0.11746195  1
  H  H649  1  0.17125032  0.86240866  0.14588002  1
  H  H650  1  0.15407849  0.92806263  0.19972358  1
  H  H651  1  0.02261225  0.94900643  0.03462759  1
  C  C652  1  0.05559898  0.56771718  0.04879202  1
  H  H653  1  0.15074787  0.77439594  0.02393507  1
  C  C654  1  0.12994195  0.89818568  0.19105721  1
  C  C655  1  0.05382932  0.85859876  0.19690119  1
  C  C656  1  0.08792716  0.89517649  0.20914877  1
  C  C657  1  0.16339836  0.54455765  0.12596590  1
  H  H658  1  0.19429319  0.85138149  0.08068562  1
  C  C659  1  0.22606787  0.96082761  0.11401188  1
  H  H660  1  0.11715852  0.93981811  0.13345505  1
  H  H661  1  0.02028136  0.85663002  0.21123023  1
  O  O662  1  0.21720523  0.70423205  0.23307213  1
  N  N663  1  0.05218690  0.57563010  0.08793535  1
  C  C664  1  0.21506690  0.63567326  0.06647207  1
  H  H665  1  0.15758257  0.97207333  0.08077790  1
  C  C666  1  0.14322366  0.69816576  0.24719424  1
  H  H667  1  0.02706296  0.68621709  0.09772261  1
  C  C668  1  0.07673599  0.53373102  0.14854327  1
  H  H669  1  0.21928577  0.56210032  0.02606652  1
  C  C670  1  0.03000492  0.60162979  0.02274880  1
  H  H671  1  0.16101379  0.56611818  0.23148759  1
  C  C672  1  0.18449053  0.53078560  0.22512844  1
  C  C673  1  0.08585593  0.52637312  0.03400824  1
  H  H674  1  0.10408107  0.66514605  0.00941505  1
  C  C675  1  0.15151321  0.52284932  0.16313941  1
  H  H676  1  0.21811291  0.82673081  0.18079756  1
  C  C677  1  0.22459126  0.86499206  0.19692864  1
  C  C678  1  0.23129400  0.91783194  0.17777363  1
  N  N679  1  0.23276345  0.91474070  0.13869936  1
  C  C680  1  0.22663894  0.83670992  0.09076475  1
  H  H681  1  0.02962234  0.53079667  0.23709541  1
  H  H682  1  0.04078513  0.53428858  0.15571624  1
  C  C683  1  0.23100947  0.86390769  0.23527305  1
  C  C684  1  0.09323182  0.97650660  0.13507980  1
  O  O685  1  0.00803912  0.91086794  0.12689132  1
  C  C686  1  0.10724099  0.51746299  0.17538973  1
  C  C687  1  0.18808186  0.50297424  0.19004754  1
  C  C688  1  0.07107128  0.93111061  0.24117556  1
  H  H689  1  0.06222535  0.80787376  0.01288563  1
  C  C690  1  0.17867589  0.65785103  0.00605111  1
  C  C691  1  0.12086230  0.88685962  0.00765665  1
  C  C692  1  0.07476562  0.90226489  0.00726369  1
  C  C693  1  0.24213200  0.97014066  0.19712061  1
  H  H694  1  0.21778734  0.70434158  0.10689522  1
  C  C695  1  0.23206587  0.58378234  0.05106261  1
  C  C696  1  0.01084247  0.59618755  0.10099517  1
  C  C697  1  0.24929866  0.96610700  0.23596224  1
  C  C698  1  0.01375577  0.62722014  0.23010562  1
  H  H699  1  0.00150372  0.61716256  0.16705015  1
  C  C700  1  0.23097018  0.66111708  0.10031005  1
  H  H701  1  0.23878873  0.78608141  0.04175588  1
  C  C702  1  0.24688870  0.86200320  0.12484278  1
  H  H703  1  0.09784059  0.50144465  0.20220841  1
  C  C704  1  0.07282349  0.98967541  0.09960678  1
  C  C705  1  0.24288495  0.99130174  0.05001699  1
  H  H706  1  0.00570826  0.63477005  0.03468785  1
  C  C707  1  0.24766026  0.95129568  0.07780452  1
  C  C708  1  0.00052550  0.65426425  0.10261133  1
  H  H709  1  0.22921430  0.82189496  0.24977941  1
  C  C710  1  0.42891006  0.62464922  0.19590499  1
  C  C711  1  0.38414276  0.50065393  0.14161010  1
  H  H712  1  0.26168498  0.98937912  0.02241433  1
  C  C713  1  0.43617955  0.91045086  0.09288098  1
  C  C714  1  0.25199272  0.79965280  0.07017839  1
  Cu  Cu715  1  0.49054670  0.60084151  0.08785649  1
  H  H716  1  0.40439828  0.99920070  0.24320200  1
  H  H717  1  0.47292972  0.97802102  0.22796317  1
  H  H718  1  0.36254280  0.53131749  0.08480333  1
  C  C719  1  0.37184045  0.75640737  0.06684562  1
  H  H720  1  0.49665435  0.75452923  0.01276191  1
  O  O721  1  0.45060347  0.64470095  0.12192243  1
  C  C722  1  0.31762146  0.69783945  0.24280834  1
  C  C723  1  0.42158332  0.61864034  0.03709369  1
  C  C724  1  0.31708236  0.55472756  0.12995265  1
  H  H725  1  0.48473192  0.93953959  0.13457262  1
  H  H726  1  0.39913450  0.57283862  0.24031926  1
  C  C727  1  0.41186781  0.85308353  0.15079585  1
  O  O728  1  0.49533687  0.71417680  0.13643965  1
  C  C729  1  0.46982866  0.71127311  0.21402515  1
  H  H730  1  0.27747116  0.65351383  0.14645922  1
  C  C731  1  0.26558151  0.63565106  0.11997554  1
  H  H732  1  0.27382784  0.68325890  0.04391733  1
  H  H733  1  0.28031227  0.51846715  0.06252586  1
  C  C734  1  0.39582108  0.81832991  0.17966488  1
  H  H735  1  0.28214108  0.57546275  0.18339436  1
  C  C736  1  0.35963980  0.92924700  0.17445834  1
  C  C737  1  0.40084050  0.71318320  0.05716657  1
  H  H738  1  0.40873080  0.77581741  0.17951695  1
  H  H739  1  0.34518980  0.96869248  0.17002352  1
  C  C740  1  0.31001635  0.69049304  0.04883823  1
  H  H741  1  0.32230824  0.90836268  0.22462619  1
  H  H742  1  0.41806492  0.59383078  0.17225138  1
  C  C743  1  0.42876143  0.87522212  0.06083683  1
  C  C744  1  0.46407440  0.68009380  0.14554928  1
  H  H745  1  0.34015422  0.78037893  0.13479214  1
  H  H746  1  0.32933154  0.60795348  0.02653552  1
  H  H747  1  0.30844589  0.65544064  0.23396809  1
  C  C748  1  0.36357108  0.83490772  0.20676694  1
  H  H749  1  0.31544062  0.95410508  0.12417454  1
  C  C750  1  0.29278118  0.77908568  0.08688080  1
  C  C751  1  0.34767936  0.89400847  0.20474028  1
  C  C752  1  0.46096564  0.83803314  0.04840975  1
  H  H753  1  0.45365299  0.81126481  0.02376092  1
  H  H754  1  0.43724153  0.71602796  0.06008960  1
  C  C755  1  0.32576435  0.74054948  0.06704035  1
  H  H756  1  0.29865995  0.86139425  0.16670464  1
  C  C757  1  0.41768622  0.61119269  0.23332255  1
  H  H758  1  0.48835911  0.75225252  0.20592843  1
  C  C759  1  0.33272639  0.98915130  0.11084816  1
  C  C760  1  0.45407895  0.67327171  0.18587976  1
  C  C761  1  0.34032719  0.52983714  0.19548349  1
  C  C762  1  0.28222922  0.58391998  0.10566194  1
  C  C763  1  0.38533509  0.66144732  0.04433818  1
  O  O764  1  0.46285434  0.62987572  0.04215625  1
  C  C765  1  0.47985414  0.91197286  0.11003899  1
  H  H766  1  0.38118729  0.80054160  0.07504131  1
  H  H767  1  0.27179297  0.91389861  0.07171149  1
  H  H768  1  0.33040690  0.52978546  0.22571605  1
  C  C769  1  0.35543998  0.52941459  0.11672843  1
  C  C770  1  0.34425385  0.73303382  0.22230809  1
  C  C771  1  0.34011036  0.65023736  0.03726974  1
  C  C772  1  0.31071066  0.79805763  0.12240479  1
  C  C773  1  0.26498345  0.55718834  0.07223267  1
  N  N774  1  0.40108945  0.93657227  0.11309361  1
  C  C775  1  0.37808339  0.98383350  0.09984961  1
  C  C776  1  0.34955324  0.79130402  0.23428981  1
  H  H777  1  0.39948348  0.88804235  0.04418818  1
  O  O778  1  0.40944828  0.57640978  0.02216921  1
  H  H779  1  0.43498251  0.83545894  0.12953349  1
  H  H780  1  0.35178460  0.71832336  0.19345454  1
  C  C781  1  0.28606128  0.83897955  0.14164782  1
  C  C782  1  0.39429317  0.90886367  0.14729055  1
  C  C783  1  0.31033851  0.55433751  0.17040831  1
  C  C784  1  0.11311562  0.61717185  0.34306909  1
  C  C785  1  0.13653502  0.65547096  0.36774147  1
  O  O786  1  0.17645127  0.66985148  0.36194974  1
  O  O787  1  0.11803348  0.66520022  0.39962675  1
  Cu  Cu788  1  0.08781406  0.72931981  0.41101587  1
  C  C789  1  0.13550762  0.80260149  0.37010253  1
  C  C790  1  0.13302305  0.90282923  0.39418141  1
  C  C791  1  0.13651672  0.86310147  0.36363018  1
  H  H792  1  0.16872611  0.61196674  0.30393705  1
  C  C793  1  0.13507559  0.59670975  0.31088348  1
  C  C794  1  0.06869915  0.60099208  0.35418377  1
  H  H795  1  0.04957994  0.62124933  0.37767789  1
  Cu  Cu796  1  0.19874495  0.73348405  0.33533580  1
  C  C797  1  0.05042630  0.55479297  0.33784404  1
  O  O798  1  0.12738404  0.78540220  0.40438587  1
  C  C799  1  0.14317680  0.88200202  0.32587555  1
  C  C800  1  0.13547302  0.96068689  0.38658569  1
  H  H801  1  0.14356103  0.85076833  0.30220659  1
  Cu  Cu802  1  0.08496466  0.53910243  0.46471769  1
  C  C803  1  0.15022374  0.93804958  0.31872965  1
  O  O804  1  0.14703702  0.77052437  0.34388430  1
  H  H805  1  0.13044564  0.88424547  0.42161016  1
  C  C806  1  0.11443253  0.55188828  0.29296564  1
  C  C807  1  0.19565606  0.82626248  0.46138170  1
  C  C808  1  0.22100469  0.92531620  0.45906934  1
  H  H809  1  0.21419036  0.83899607  0.30665443  1
  H  H810  1  0.19086769  0.78691050  0.44940437  1
  C  C811  1  0.21534327  0.86998826  0.44321214  1
  H  H812  1  0.20480827  0.93366460  0.38012212  1
  O  O813  1  0.03013917  0.72622258  0.39788608  1
  C  C814  1  0.22790660  0.96572703  0.39221269  1
  C  C815  1  0.14416863  0.97816186  0.34820366  1
  H  H816  1  0.15862980  0.95399880  0.29054774  1
  H  H817  1  0.12014220  0.52367697  0.37588590  1
  C  C818  1  0.07269039  0.53033374  0.30479486  1
  H  H819  1  0.11154083  0.74496831  0.29284112  1
  H  H820  1  0.03755751  0.70528952  0.27805688  1
  O  O821  1  0.19752009  0.75071809  0.28490815  1
  H  H822  1  0.01716791  0.53898320  0.34982036  1
  O  O823  1  0.03290690  0.77923267  0.34604898  1
  O  O824  1  0.05481977  0.52712679  0.42045705  1
  C  C825  1  0.10808531  0.71439639  0.27023908  1
  H  H826  1  0.13675447  0.99168598  0.41045300  1
  H  H827  1  0.21818310  0.54057747  0.28065409  1
  H  H828  1  0.12432296  0.53126811  0.26710191  1
  H  H829  1  0.22873554  0.85865298  0.41519702  1
  C  C830  1  0.20727225  0.93563342  0.49721162  1
  H  H831  1  0.01299003  0.55413438  0.46374851  1
  C  C832  1  0.23914169  0.96653671  0.43236158  1
  C  C833  1  0.24252472  0.86196137  0.31962334  1
  C  C834  1  0.06684355  0.69351427  0.26111559  1
  O  O835  1  0.03335513  0.92366127  0.25067219  1
  C  C836  1  0.01453032  0.64315612  0.47955526  1
  C  C837  1  0.17618053  0.84241555  0.49673002  1
  H  H838  1  0.00853660  0.63441972  0.29210910  1
  C  C839  1  0.01660240  0.74242593  0.36438865  1
  H  H840  1  0.00906398  0.73098454  0.49695055  1
  C  C841  1  0.21557904  0.51729518  0.25331247  1
  C  C842  1  0.24623470  0.91292834  0.25496283  1
  O  O843  1  0.09383054  0.97580356  0.25292835  1
  H  H844  1  0.24476378  0.81155678  0.36994819  1
  O  O845  1  0.07759494  0.59383528  0.49926311  1
  C  C846  1  0.05799350  0.64002696  0.49609369  1
  C  C847  1  0.18914411  0.71889830  0.25479251  1
  H  H848  1  0.46254552  0.84488426  0.49939960  1
  C  C849  1  0.48362657  0.50127045  0.31714714  1
  O  O850  1  0.25715855  0.69795748  0.33123011  1
  H  H851  1  0.45384165  0.98954447  0.49030893  1
  N  N852  1  0.48093256  0.51352393  0.42177914  1
  C  C853  1  0.29691685  0.87586785  0.36864867  1
  C  C854  1  0.30182183  0.71834183  0.27814790  1
  O  O855  1  0.27255591  0.62806423  0.29084710  1
  H  H856  1  0.31333841  0.96912762  0.29505099  1
  H  H857  1  0.31527157  0.55209741  0.38161908  1
  C  C858  1  0.31784795  0.55590077  0.41279816  1
  C  C859  1  0.30906905  0.77373152  0.29126177  1
  C  C860  1  0.38549525  0.77829637  0.49095944  1
  C  C861  1  0.27564353  0.67707702  0.30111474  1
  O  O862  1  0.48098548  0.93451154  0.35160712  1
  C  C863  1  0.29387613  0.52594911  0.47532437  1
  C  C864  1  0.42898909  0.65117320  0.26145778  1
  H  H865  1  0.44915799  0.78524542  0.46252831  1
  C  C866  1  0.38226486  0.70268735  0.35319060  1
  H  H867  1  0.29775772  0.69417968  0.46149733  1
  C  C868  1  0.45928652  0.63455361  0.48279951  1
  C  C869  1  0.39900879  0.70178729  0.31692025  1
  C  C870  1  0.29360220  0.51767672  0.43490655  1
  H  H871  1  0.42409547  0.56024649  0.31171320  1
  H  H872  1  0.36679356  0.63893038  0.48309546  1
  C  C873  1  0.41605123  0.76671726  0.45914405  1
  Cu  Cu874  1  0.41086233  0.85562077  0.40397691  1
  C  C875  1  0.46524426  0.60588238  0.44957559  1
  C  C876  1  0.30012618  0.93160841  0.30965105  1
  C  C877  1  0.48541281  0.55056877  0.45197929  1
  C  C878  1  0.37749808  0.65144892  0.37569430  1
  O  O879  1  0.43205056  0.93238365  0.39647806  1
  C  C880  1  0.41242065  0.59992204  0.32442812  1
  H  H881  1  0.39093576  0.55920195  0.37714338  1
  O  O882  1  0.30238657  0.81348815  0.42001689  1
  C  C883  1  0.34296532  0.75110491  0.49062111  1
  C  C884  1  0.26085771  0.90388732  0.29550903  1
  H  H885  1  0.33286139  0.85765810  0.27599598  1
  C  C886  1  0.45472042  0.69907438  0.25025324  1
  C  C887  1  0.31437215  0.91861177  0.34572091  1
  H  H888  1  0.43505172  0.67216801  0.48299903  1
  H  H889  1  0.36701881  0.74108100  0.36725968  1
  C  C890  1  0.40454794  0.72920587  0.43099133  1
  H  H891  1  0.49080451  0.75915414  0.34697451  1
  O  O892  1  0.35261361  0.88024536  0.41745340  1
  C  C893  1  0.41548355  0.64947326  0.30255292  1
  C  C894  1  0.34186445  0.60202758  0.42972157  1
  H  H895  1  0.44685934  0.61898486  0.42379718  1
  H  H896  1  0.46074458  0.72958421  0.27301209  1
  H  H897  1  0.34202397  0.94313364  0.35799777  1
  H  H898  1  0.42672054  0.71859915  0.40787274  1
  H  H899  1  0.29162195  0.78481661  0.31689365  1
  C  C900  1  0.49023174  0.52848423  0.38450088  1
  C  C901  1  0.36220134  0.70189260  0.43251698  1
  H  H902  1  0.39702111  0.73920267  0.29925511  1
  C  C903  1  0.31673213  0.85555265  0.40528540  1
  C  C904  1  0.44859502  0.95494826  0.36504232  1
  C  C905  1  0.33045712  0.71373029  0.46263810  1
  C  C906  1  0.39306594  0.59961379  0.35975301  1
  C  C907  1  0.26020890  0.84614418  0.35393088  1
  C  C908  1  0.32996432  0.81218995  0.26806429  1
  C  C909  1  0.34510389  0.60712449  0.47014713  1
  C  C910  1  0.31907585  0.57165113  0.49208477  1
  O  O911  1  0.46247111  0.81043308  0.39977495  1
  N  N912  1  0.35832160  0.65116958  0.41218333  1
  O  O913  1  0.11883897  0.70857784  0.69040726  1
  O  O914  1  0.18181202  0.69620544  0.55251313  1
  O  O915  1  0.06827066  0.78700665  0.65927824  1
  C  C916  1  0.03978626  0.76341297  0.63844481  1
  Cu  Cu917  1  0.08384591  0.77022380  0.70902376  1
  C  C918  1  0.10874763  0.65756395  0.69088059  1
  C  C919  1  0.19424886  0.71424336  0.58503101  1
  O  O920  1  0.05243017  0.74089280  0.60712853  1
  O  O921  1  0.16867938  0.74737871  0.60354739  1
  H  H922  1  0.12410798  0.91576112  0.64811521  1
  C  C923  1  0.11405415  0.92743122  0.61794227  1
  Cu  Cu924  1  0.15659800  0.82926245  0.59370356  1
  O  O925  1  0.18274785  0.84228360  0.64418557  1
  C  C926  1  0.05515115  0.92384633  0.56674936  1
  C  C927  1  0.14099865  0.61343555  0.68081425  1
  H  H928  1  0.19140449  0.67733511  0.66697102  1
  C  C929  1  0.18336990  0.63074352  0.66803097  1
  H  H930  1  0.16008878  0.79989332  0.69630897  1
  C  C931  1  0.12729884  0.55681432  0.68092096  1
  C  C932  1  0.07152069  0.91059241  0.60448938  1
  H  H933  1  0.04509918  0.95131411  0.65791200  1
  O  O934  1  0.07243314  0.64288387  0.70475085  1
  H  H935  1  0.05557131  0.88031946  0.62314533  1
  C  C936  1  0.19378609  0.78578795  0.70564913  1
  C  C937  1  0.16628162  0.95492110  0.71291369  1
  Cu  Cu938  1  0.08982394  0.77436725  0.57430580  1
  O  O939  1  0.12939547  0.81906725  0.54681471  1
  Cu  Cu940  1  0.12604973  0.69670714  0.53237649  1
  C  C941  1  0.08323392  0.96328560  0.54915989  1
  C  C942  1  0.14110781  0.96135433  0.59409782  1
  C  C943  1  0.21559565  0.59252212  0.65973518  1
  H  H944  1  0.16990655  0.90166298  0.54596296  1
  C  C945  1  0.07364523  0.95528848  0.71728675  1
  O  O946  1  0.20501658  0.95837308  0.63140360  1
  C  C947  1  0.22213462  0.83870574  0.65306109  1
  C  C948  1  0.14681928  0.80280711  0.51493724  1
  C  C949  1  0.20242903  0.53536953  0.66449987  1
  N  N950  1  0.02775802  0.95692526  0.72875421  1
  C  C951  1  0.23246403  0.80802723  0.68856305  1
  H  H952  1  0.09322207  0.54358224  0.68726794  1
  C  C953  1  0.21573978  0.96113438  0.71437382  1
  H  H954  1  0.22518888  0.86930595  0.72631574  1
  O  O955  1  0.07016609  0.68570691  0.51189034  1
  C  C956  1  0.20066964  0.74153434  0.73107402  1
  C  C957  1  0.14470225  0.91680877  0.73879239  1
  C  C958  1  0.12521256  0.98037378  0.55861299  1
  H  H959  1  0.07195657  0.98251340  0.52174091  1
  C  C960  1  0.18810131  0.97935021  0.60074130  1
  C  C961  1  0.23727774  0.69674026  0.59951541  1
  H  H962  1  0.17393970  0.71381582  0.73734880  1
  C  C963  1  0.18238734  0.89633260  0.51600790  1
  C  C964  1  0.15939136  0.51602563  0.67395545  1
  C  C965  1  0.09831327  0.91806677  0.74014278  1
  C  C966  1  0.09625223  0.98906424  0.68986555  1
  C  C967  1  0.24572219  0.72872686  0.74003696  1
  C  C968  1  0.01454309  0.89146413  0.55262617  1
  H  H969  1  0.00840426  0.83439594  0.60074522  1
  C  C970  1  0.00997385  0.95551354  0.66338757  1
  C  C971  1  0.24201964  0.91169325  0.72461475  1
  C  C972  1  0.24320384  0.51307612  0.53285853  1
  H  H973  1  0.21331180  0.97783337  0.51243733  1
  O  O974  1  0.13986722  0.75410820  0.50050483  1
  H  H975  1  0.24654658  0.60561868  0.64533151  1
  H  H976  1  0.23786306  0.74745818  0.65316929  1
  H  H977  1  0.24546376  0.64781448  0.54554123  1
  C  C978  1  0.14169371  0.98840895  0.68659883  1
  H  H979  1  0.01045139  0.94497568  0.50377739  1
  H  H980  1  0.00193459  0.83962994  0.69137687  1
  H  H981  1  0.24590762  0.55791097  0.53712296  1
  C  C982  1  0.49807240  0.61878830  0.58580595  1
  C  C983  1  0.45453319  0.66792785  0.63188316  1
  C  C984  1  0.25788346  0.65905897  0.57333264  1
  H  H985  1  0.31572858  0.75137660  0.74005590  1
  C  C986  1  0.43583801  0.67963558  0.56164166  1
  C  C987  1  0.35542051  0.98050471  0.72705899  1
  H  H988  1  0.45932831  0.98660976  0.74074031  1
  C  C989  1  0.30819687  0.96943456  0.72146465  1
  C  C990  1  0.45846880  0.85955115  0.56164224  1
  C  C991  1  0.37621630  0.80305038  0.55990716  1
  O  O992  1  0.47423678  0.67255391  0.69905779  1
  O  O993  1  0.25188458  0.86078058  0.63162538  1
  Cu  Cu994  1  0.26616457  0.94026998  0.63423462  1
  C  C995  1  0.39196794  0.82339785  0.59397541  1
  H  H996  1  0.31929038  0.75963291  0.51308048  1
  H  H997  1  0.31966870  0.67073096  0.73982856  1
  C  C998  1  0.40291049  0.80529066  0.52588166  1
  C  C999  1  0.42982594  0.69099484  0.60057979  1
  O  O1000  1  0.38468406  0.94377291  0.73140002  1
  C  C1001  1  0.25579130  0.71690062  0.63461178  1
  H  H1002  1  0.32358021  0.59344596  0.69081856  1
  C  C1003  1  0.47630605  0.61229676  0.51745754  1
  Cu  Cu1004  1  0.40618376  0.90096023  0.69149899  1
  H  H1005  1  0.37619682  0.52368502  0.70535707  1
  H  H1006  1  0.37230204  0.81934225  0.62164054  1
  H  H1007  1  0.44053813  0.54316819  0.59414113  1
  H  H1008  1  0.34196574  0.78361789  0.56183977  1
  C  C1009  1  0.28379226  0.76238108  0.72884541  1
  C  C1010  1  0.29535891  0.63013472  0.58683610  1
  H  H1011  1  0.41507289  0.69658402  0.53876323  1
  H  H1012  1  0.30983908  0.59187512  0.57405314  1
  H  H1013  1  0.28260156  0.55461501  0.63402328  1
  C  C1014  1  0.41612742  0.52824993  0.65145139  1
  C  C1015  1  0.27749285  0.50931572  0.64107608  1
  C  C1016  1  0.45437764  0.54164029  0.72164763  1
  C  C1017  1  0.43523961  0.84591073  0.59532534  1
  H  H1018  1  0.38004130  0.60730176  0.57644939  1
  C  C1019  1  0.44314007  0.83996355  0.52768981  1
  O  O1020  1  0.32439508  0.92875556  0.62846135  1
  H  H1021  1  0.31516687  0.57215905  0.52209099  1
  C  C1022  1  0.48937451  0.63300680  0.62345333  1
  H  H1023  1  0.30580205  0.87663913  0.72725795  1
  C  C1024  1  0.31417596  0.65038268  0.62109677  1
  C  C1025  1  0.37934780  0.58929017  0.60510001  1
  C  C1026  1  0.38071859  0.54248114  0.67765526  1
  O  O1027  1  0.49358771  0.88545646  0.63344927  1
  H  H1028  1  0.30436234  0.82526223  0.68659962  1
  H  H1029  1  0.48909360  0.88233606  0.56525405  1
  H  H1030  1  0.40292875  0.71757941  0.60990574  1
  C  C1031  1  0.34956632  0.60902325  0.63400922  1
  O  O1032  1  0.43334153  0.85241308  0.66058942  1
  C  C1033  1  0.27789094  0.80146826  0.70053047  1
  O  O1034  1  0.39139677  0.94915454  0.64958814  1
  H  H1035  1  0.31457364  0.71003350  0.66894092  1
  C  C1036  1  0.45713008  0.85966485  0.63135488  1
  H  H1037  1  0.44063366  0.58162141  0.70868194  1
  C  C1038  1  0.44234805  0.68453860  0.67178646  1
  C  C1039  1  0.29610582  0.69517034  0.64403217  1
  C  C1040  1  0.34827569  0.58203222  0.67089780  1
  C  C1041  1  0.41457134  0.55503981  0.61479426  1
  C  C1042  1  0.28767620  0.91524106  0.72375289  1
  C  C1043  1  0.46842400  0.63857888  0.55578340  1
  C  C1044  1  0.35515325  0.96326446  0.63588864  1
  O  O1045  1  0.41139619  0.71161239  0.68060161  1
  C  C1046  1  0.12381775  0.64649144  0.87729738  1
  C  C1047  1  0.16025500  0.67880798  0.88904869  1
  C  C1048  1  0.17659789  0.72079913  0.86426248  1
  C  C1049  1  0.15629149  0.73773586  0.83111718  1
  C  C1050  1  0.11863218  0.70838153  0.81978208  1
  H  H1051  1  0.11300262  0.60735858  0.89077405  1
  C  C1052  1  0.10423246  0.66166093  0.84251626  1
  H  H1053  1  0.07692739  0.63788518  0.83170206  1
  H  H1054  1  0.20640575  0.74355975  0.87214025  1
  C  C1055  1  0.17211770  0.66617314  0.93021947  1
  C  C1056  1  0.13189947  0.66451591  0.95123043  1
  C  C1057  1  0.21546449  0.66156249  0.94409606  1
  C  C1058  1  0.04776211  0.73808555  0.92785172  1
  H  H1059  1  0.17274493  0.76742017  0.81281656  1
  C  C1060  1  0.21086968  0.84980992  0.88231743  1
  H  H1061  1  0.11665532  0.87086234  0.89499883  1
  C  C1062  1  0.08922741  0.75356085  0.90997617  1
  C  C1063  1  0.12171294  0.77899757  0.93143784  1
  C  C1064  1  0.10902707  0.80493901  0.96686385  1
  C  C1065  1  0.18309099  0.84478730  0.97633174  1
  H  H1066  1  0.10045124  0.73956164  0.88142445  1
  H  H1067  1  0.15434075  0.78404516  0.91985627  1
  H  H1068  1  0.09837955  0.66894680  0.93685758  1
  H  H1069  1  0.08535143  0.94560956  0.93136233  1
  H  H1070  1  0.19757202  0.85389279  0.91100998  1
  H  H1071  1  0.04210153  0.71498239  0.85352833  1
  C  C1072  1  0.19580596  0.88317686  0.85056911  1
  C  C1073  1  0.04093900  0.96834889  0.79779295  1
  C  C1074  1  0.03281275  0.94898924  0.83426010  1
  C  C1075  1  0.03848264  0.75729511  0.96564973  1
  C  C1076  1  0.20930826  0.79408707  0.97366918  1
  C  C1077  1  0.09158761  0.71184585  0.78570942  1
  C  C1078  1  0.12778011  0.91244495  0.88808003  1
  C  C1079  1  0.21735097  0.87955995  0.81480153  1
  C  C1080  1  0.16141924  0.92775652  0.86006540  1
  C  C1081  1  0.21838140  0.65683722  0.98354250  1
  H  H1082  1  0.18848517  0.56767628  0.80246672  1
  C  C1083  1  0.10885319  0.95621577  0.90786676  1
  H  H1084  1  0.20696755  0.90805115  0.79141069  1
  H  H1085  1  0.22751559  0.58113830  0.90393724  1
  O  O1086  1  0.06133294  0.55043981  0.78948543  1
  C  C1087  1  0.20952967  0.64268168  0.77476127  1
  C  C1088  1  0.20233011  0.89977768  0.97134674  1
  O  O1089  1  0.06364702  0.67519753  0.77752381  1
  C  C1090  1  0.04046197  0.56956059  0.90340188  1
  H  H1091  1  0.19207223  0.75492840  0.97401762  1
  C  C1092  1  0.21703428  0.59085976  0.78980948  1
  C  C1093  1  0.01520712  0.69707518  0.86782949  1
  C  C1094  1  0.04693562  0.56212189  0.86414721  1
  N  N1095  1  0.13724283  0.84515705  0.98369446  1
  H  H1096  1  0.17644812  0.66329118  0.77974996  1
  H  H1097  1  0.18377911  0.93808257  0.97028495  1
  C  C1098  1  0.01182573  0.70367882  0.90845510  1
  H  H1099  1  0.05382848  0.88467891  0.98340334  1
  C  C1100  1  0.06785688  0.79242892  0.98428757  1
  C  C1101  1  0.01664827  0.94438906  0.76653262  1
  C  C1102  1  0.08455350  0.53355316  0.85296134  1
  C  C1103  1  0.09284645  0.52772083  0.80996826  1
  C  C1104  1  0.23829036  0.52589034  0.95164059  1
  C  C1105  1  0.13456733  0.65998522  0.99027545  1
  C  C1106  1  0.03491689  0.59965906  0.98402817  1
  C  C1107  1  0.06570488  0.55712225  0.97139067  1
  C  C1108  1  0.07405099  0.54979988  0.92998507  1
  H  H1109  1  0.05573559  0.96161124  0.85743116  1
  H  H1110  1  0.00771144  0.74564253  0.97790485  1
  C  C1111  1  0.10916069  0.51770358  0.91533261  1
  H  H1112  1  0.00826991  0.96312752  0.90841815  1
  H  H1113  1  0.00789558  0.58335610  0.91239208  1
  H  H1114  1  0.02109374  0.57718548  0.84304030  1
  H  H1115  1  0.01580284  0.62679415  0.96392865  1
  C  C1116  1  0.09020853  0.52005977  0.99487024  1
  O  O1117  1  0.09839045  0.75390888  0.76308550  1
  H  H1118  1  0.20587898  0.50682261  0.95512864  1
  C  C1119  1  0.16772568  0.98556933  0.85087805  1
  C  C1120  1  0.11652842  0.50922837  0.87756453  1
  H  H1121  1  0.24339186  0.66353170  0.92230572  1
  H  H1122  1  0.00318707  0.93399438  0.97154291  1
  H  H1123  1  0.19554361  0.99524300  0.83194667  1
  O  O1124  1  0.12394692  0.50629736  0.79614847  1
  C  C1125  1  0.24827888  0.90157589  0.96569912  1
  Cu  Cu1126  1  0.06922468  0.60553974  0.75196689  1
  C  C1127  1  0.24725139  0.81523121  0.87811764  1
  C  C1128  1  0.24872095  0.67037108  0.75682262  1
  H  H1129  1  0.13505752  0.50002630  0.93348422  1
  H  H1130  1  0.00088220  0.50935456  0.77152109  1
  H  H1131  1  0.16466665  0.88753914  0.75736727  1
  H  H1132  1  0.07981833  0.88557366  0.75772340  1
  C  C1133  1  0.25434950  0.84480314  0.81150621  1
  H  H1134  1  0.45977139  0.57357436  0.77810019  1
  H  H1135  1  0.26542979  0.70439278  0.81890434  1
  C  C1136  1  0.25073400  0.56487535  0.92450404  1
  C  C1137  1  0.29222090  0.64723841  0.75443686  1
  H  H1138  1  0.25805791  0.60999166  0.84925095  1
  H  H1139  1  0.31001341  0.99815587  0.77290594  1
  N  N1140  1  0.26651453  0.50903892  0.79066506  1
  C  C1141  1  0.46576980  0.53742312  0.75976729  1
  H  H1142  1  0.25174532  0.65340839  0.99447818  1
  C  C1143  1  0.32139748  0.85385155  0.96451599  1
  H  H1144  1  0.42006179  0.78729135  0.98133923  1
  H  H1145  1  0.34203824  0.76598156  0.98107794  1
  C  C1146  1  0.26131610  0.56602462  0.78423568  1
  C  C1147  1  0.34128806  0.72659500  0.89226241  1
  C  C1148  1  0.28477540  0.69607564  0.84649022  1
  H  H1149  1  0.33140639  0.57299203  0.76961856  1
  H  H1150  1  0.27292149  0.84038574  0.78520350  1
  H  H1151  1  0.25975248  0.79486123  0.90297070  1
  H  H1152  1  0.26636811  0.94042714  0.95639848  1
  C  C1153  1  0.38393618  0.91760471  0.95785175  1
  C  C1154  1  0.44189016  0.54763283  0.94022543  1
  C  C1155  1  0.29522082  0.58578485  0.92191693  1
  H  H1156  1  0.43670096  0.51917225  0.96458508  1
  O  O1157  1  0.48643523  0.84111310  0.96849696  1
  C  C1158  1  0.42935654  0.56863624  0.87261644  1
  H  H1159  1  0.47884403  0.84619487  0.88187901  1
  C  C1160  1  0.39745366  0.81950835  0.97362150  1
  H  H1161  1  0.39800804  0.95868613  0.95039343  1
  C  C1162  1  0.49743609  0.72622676  0.88146458  1
  C  C1163  1  0.41295519  0.87299669  0.96582026  1
  H  H1164  1  0.47963060  0.60724588  0.97315366  1
  H  H1165  1  0.36386583  0.75875014  0.90355981  1
  H  H1166  1  0.45517915  0.64674830  0.85184518  1
  C  C1167  1  0.43107056  0.82441226  0.82637836  1
  O  O1168  1  0.47921819  0.93156246  0.96900449  1
  C  C1169  1  0.27301731  0.84983327  0.97016037  1
  C  C1170  1  0.46968511  0.97794295  0.83932306  1
  C  C1171  1  0.27391536  0.50464058  0.97420163  1
  H  H1172  1  0.28867059  0.51117729  0.86640033  1
  C  C1173  1  0.34583995  0.87877717  0.83095162  1
  H  H1174  1  0.45209367  0.99898099  0.81662785  1
  C  C1175  1  0.35188809  0.81815819  0.83066440  1
  H  H1176  1  0.31968730  0.94232109  0.94074411  1
  C  C1177  1  0.27123213  0.81347630  0.84260005  1
  C  C1178  1  0.46598368  0.59928077  0.94510215  1
  C  C1179  1  0.38172558  0.91326617  0.82626824  1
  H  H1180  1  0.46348972  0.80517872  0.82836190  1
  H  H1181  1  0.41411180  0.55116917  0.84561402  1
  C  C1182  1  0.47532249  0.63274098  0.91176122  1
  H  H1183  1  0.27433885  0.75465204  0.96729655  1
  C  C1184  1  0.32860216  0.56134985  0.94561999  1
  C  C1185  1  0.48499277  0.88878164  0.87434881  1
  C  C1186  1  0.46161528  0.91794186  0.84608252  1
  C  C1187  1  0.42449886  0.88461193  0.82787394  1
  C  C1188  1  0.35226978  0.80840281  0.97331681  1
  C  C1189  1  0.33482390  0.67617561  0.91154302  1
  C  C1190  1  0.46285652  0.88064044  0.96626986  1
  C  C1191  1  0.33811038  0.90872156  0.95393971  1
  C  C1192  1  0.45134469  0.61937775  0.87701437  1
  C  C1193  1  0.31575275  0.73671278  0.85876589  1
  C  C1194  1  0.31816737  0.52129059  0.97245656  1
  C  C1195  1  0.39372107  0.79096490  0.82740828  1
  C  C1196  1  0.42479211  0.53329649  0.90473442  1
  H  H1197  1  0.39687521  0.74496265  0.82931104  1
  H  H1198  1  0.37621093  0.95980448  0.82446822  1
  H  H1199  1  0.31409330  0.89876576  0.83479085  1
  C  C1200  1  0.29971576  0.59428403  0.76974241  1
  H  H1201  1  0.46864652  0.72554668  0.86425454  1
  H  H1202  1  0.35696769  0.66837386  0.93722048  1
  C  C1203  1  0.28013129  0.64284436  0.86246359  1
  C  C1204  1  0.25499895  0.79394167  0.97291424  1
  C  C1205  1  0.30613692  0.63419623  0.89683462  1
  N  N1206  1  0.31363092  0.78892572  0.83887612  1
  H  H1207  1  0.36317356  0.57145225  0.94026865  1
  C  C1208  1  0.49221311  0.99910916  0.75076039  1
  H  H1209  1  0.68190249  0.14820907  0.19063311  1
  H  H1210  1  0.60160141  0.12609506  0.20651239  1
  H  H1211  1  0.60639104  0.41494617  0.07777793  1
  C  C1212  1  0.66818430  0.15149722  0.22043421  1
  H  H1213  1  0.52886975  0.26362518  0.17367644  1
  O  O1214  1  0.56857246  0.45542473  0.02713323  1
  C  C1215  1  0.53618763  0.01602974  0.10997724  1
  C  C1216  1  0.61341687  0.45281007  0.09501728  1
  H  H1217  1  0.64614033  0.40922105  0.14234446  1
  C  C1218  1  0.63843450  0.44969138  0.12756194  1
  C  C1219  1  0.62529558  0.13835925  0.22924860  1
  Cu  Cu1220  1  0.64600344  0.24608930  0.21712487  1
  H  H1221  1  0.51644555  0.17070994  0.14143847  1
  O  O1222  1  0.63141383  0.37673958  0.20252348  1
  H  H1223  1  0.53823939  0.01429365  0.17079465  1
  H  H1224  1  0.65371377  0.23819171  0.03331244  1
  C  C1225  1  0.67531559  0.25708083  0.05462312  1
  H  H1226  1  0.72676781  0.17102763  0.18035999  1
  H  H1227  1  0.68114862  0.44459490  0.22462715  1
  H  H1228  1  0.67768352  0.38706647  0.01504596  1
  C  C1229  1  0.51352649  0.27510697  0.23209282  1
  C  C1230  1  0.71020944  0.29296343  0.03956997  1
  C  C1231  1  0.52493766  0.12891159  0.22199359  1
  C  C1232  1  0.67328862  0.24447085  0.09343311  1
  H  H1233  1  0.64880676  0.21675895  0.10699438  1
  C  C1234  1  0.53420023  0.02228884  0.03984555  1
  O  O1235  1  0.66553732  0.23927861  0.17031447  1
  C  C1236  1  0.70523413  0.27325333  0.11488715  1
  C  C1237  1  0.70186683  0.26555429  0.15727496  1
  C  C1238  1  0.55644551  0.00235548  0.14405402  1
  H  H1239  1  0.53684068  0.17280017  0.22383976  1
  H  H1240  1  0.50378717  0.14207696  0.07580576  1
  C  C1241  1  0.55644109  0.00437862  0.07437676  1
  H  H1242  1  0.50349724  0.03793437  0.11061389  1
  C  C1243  1  0.50438731  0.25664562  0.19607573  1
  H  H1244  1  0.57892826  0.02999037  0.21285411  1
  H  H1245  1  0.54502578  0.29568910  0.24012154  1
  O  O1246  1  0.72678329  0.28733559  0.17807596  1
  C  C1247  1  0.74754360  0.16430033  0.24016595  1
  C  C1248  1  0.61407196  0.01442904  0.21213827  1
  C  C1249  1  0.74013823  0.30794979  0.10119193  1
  C  C1250  1  0.74162807  0.32289833  0.06337008  1
  O  O1251  1  0.55252351  0.01147939  0.00776361  1
  C  C1252  1  0.64188667  0.02389046  0.24237180  1
  C  C1253  1  0.63329969  0.35771529  0.23386456  1
  O  O1254  1  0.61759816  0.30618677  0.24004498  1
  C  C1255  1  0.68708415  0.00382156  0.24419509  1
  O  O1256  1  0.95820493  0.06816910  0.24617381  1
  C  C1257  1  0.84634581  0.42848601  0.07435290  1
  C  C1258  1  0.85592735  0.29051453  0.04909561  1
  H  H1259  1  0.95929689  0.38124373  0.06447096  1
  N  N1260  1  0.91943183  0.49978007  0.23858169  1
  H  H1261  1  0.76785117  0.35009697  0.05047345  1
  H  H1262  1  0.76533948  0.32510431  0.12190966  1
  H  H1263  1  0.99186827  0.44865590  0.20305588  1
  C  C1264  1  0.83074675  0.16162140  0.21519036  1
  C  C1265  1  0.80582229  0.47354491  0.02099266  1
  H  H1266  1  0.98481068  0.22689034  0.24411602  1
  C  C1267  1  0.99476633  0.36357747  0.17140251  1
  H  H1268  1  0.99226678  0.37851013  0.11251352  1
  C  C1269  1  0.89119481  0.48876747  0.20645506  1
  C  C1270  1  0.82956588  0.01475347  0.22802151  1
  H  H1271  1  0.82269232  0.27472551  0.04507009  1
  C  C1272  1  0.93874505  0.32260460  0.12809660  1
  C  C1273  1  0.91586942  0.32341391  0.09007326  1
  C  C1274  1  0.75367720  0.16541702  0.20015014  1
  C  C1275  1  0.87368375  0.31793050  0.01696770  1
  C  C1276  1  0.93279144  0.29858631  0.19473852  1
  O  O1277  1  0.90773557  0.15548571  0.22601064  1
  C  C1278  1  0.87703293  0.29206766  0.08409040  1
  N  N1279  1  0.98429516  0.34356706  0.23788885  1
  O  O1280  1  0.88152576  0.16415103  0.16644219  1
  H  H1281  1  0.80750229  0.16992330  0.15818514  1
  C  C1282  1  0.83387210  0.42949638  0.03683959  1
  Cu  Cu1283  1  0.96412999  0.13495618  0.21637124  1
  C  C1284  1  0.92969761  0.35672938  0.05799319  1
  C  C1285  1  0.91820143  0.28925973  0.15794756  1
  H  H1286  1  0.77206249  0.07167815  0.23316257  1
  H  H1287  1  0.91619325  0.40180244  0.19889553  1
  C  C1288  1  0.91197536  0.35113620  0.02181267  1
  H  H1289  1  0.85909446  0.27406669  0.10822243  1
  C  C1290  1  0.79771146  0.16405036  0.18785415  1
  C  C1291  1  0.85378911  0.47988892  0.13677222  1
  C  C1292  1  0.87717478  0.16241176  0.20033872  1
  C  C1293  1  0.97087225  0.33552965  0.20108386  1
  C  C1294  1  0.87525978  0.43260086  0.15156255  1
  C  C1295  1  0.89616375  0.43546633  0.18660788  1
  C  C1296  1  0.78854946  0.03222126  0.24189900  1
  H  H1297  1  0.86912457  0.39441283  0.08363407  1
  H  H1298  1  0.87758188  0.39407449  0.13548700  1
  C  C1299  1  0.83534639  0.47701899  0.09789257  1
  H  H1300  1  0.84433685  0.39391760  0.01693503  1
  O  O1301  1  0.95817220  0.03949405  0.01265615  1
  C  C1302  1  0.97591020  0.35871035  0.13595622  1
  H  H1303  1  0.91700249  0.27872576  0.21857068  1
  H  H1304  1  0.89059833  0.26328333  0.15295164  1
  H  H1305  1  0.84930494  0.04418842  0.20786341  1
  H  H1306  1  0.92885725  0.37763248  0.00122897  1
  C  C1307  1  0.55336074  0.04133007  0.33109107  1
  C  C1308  1  0.56202285  0.09629911  0.31700840  1
  C  C1309  1  0.53275134  0.08101803  0.39218416  1
  C  C1310  1  0.53862988  0.13762353  0.37839312  1
  H  H1311  1  0.63150956  0.14837751  0.32736035  1
  C  C1312  1  0.55486935  0.14407473  0.34080777  1
  C  C1313  1  0.57339720  0.41336990  0.33014870  1
  H  H1314  1  0.56163099  0.18602081  0.32694272  1
  H  H1315  1  0.59191386  0.36033599  0.37900262  1
  C  C1316  1  0.57392902  0.36244696  0.35241778  1
  C  C1317  1  0.54936649  0.31571491  0.33991791  1
  C  C1318  1  0.65213730  0.16411866  0.40969771  1
  H  H1319  1  0.62326702  0.14586348  0.39502402  1
  C  C1320  1  0.64621255  0.21258896  0.43143912  1
  C  C1321  1  0.54722837  0.09416308  0.46159391  1
  H  H1322  1  0.57623772  0.11975286  0.45316384  1
  C  C1323  1  0.69645008  0.09219148  0.37307420  1
  C  C1324  1  0.69304876  0.13850444  0.40143164  1
  C  C1325  1  0.65900381  0.05638591  0.36053917  1
  C  C1326  1  0.64096351  0.15031383  0.29715743  1
  O  O1327  1  0.65370816  0.38945907  0.42040841  1
  C  C1328  1  0.68292430  0.23198465  0.45233079  1
  N  N1329  1  0.57136610  0.10687435  0.27779430  1
  C  C1330  1  0.68455943  0.15993641  0.28890489  1
  C  C1331  1  0.55006642  0.41665013  0.29299589  1
  H  H1332  1  0.57439581  0.41998458  0.40203780  1
  H  H1333  1  0.57617375  0.38149194  0.45396565  1
  C  C1334  1  0.66429683  0.41419904  0.44945427  1
  O  O1335  1  0.70575763  0.42555254  0.45521368  1
  H  H1336  1  0.55110026  0.27512022  0.35527488  1
  C  C1337  1  0.52204552  0.06579940  0.43290660  1
  H  H1338  1  0.61458679  0.23588264  0.43382942  1
  C  C1339  1  0.68017741  0.39579202  0.33118533  1
  C  C1340  1  0.66056176  0.36379612  0.30355002  1
  H  H1341  1  0.70838651  0.16043953  0.31114271  1
  H  H1342  1  0.62658662  0.05959022  0.37363000  1
  C  C1343  1  0.52170673  0.32237699  0.30661478  1
  C  C1344  1  0.70528139  0.44560711  0.31946027  1
  H  H1345  1  0.64215201  0.13186535  0.46996076  1
  H  H1346  1  0.53129608  0.17595466  0.39635888  1
  C  C1347  1  0.52375926  0.37229635  0.28365931  1
  C  C1348  1  0.67941359  0.28039040  0.47669601  1
  C  C1349  1  0.58829050  0.40794217  0.47755774  1
  C  C1350  1  0.63093999  0.43169437  0.47885942  1
  C  C1351  1  0.58552256  0.46111641  0.39161508  1
  C  C1352  1  0.60840445  0.13684431  0.26827436  1
  H  H1353  1  0.55276730  0.45413685  0.27499391  1
  H  H1354  1  0.68098251  0.38458482  0.36254111  1
  H  H1355  1  0.63940128  0.32802797  0.31271478  1
  C  C1356  1  0.58909158  0.46487787  0.35038847  1
  C  C1357  1  0.72551077  0.20790637  0.44548381  1
  C  C1358  1  0.70533698  0.46492682  0.28064948  1
  C  C1359  1  0.70895989  0.02234561  0.31001710  1
  H  H1360  1  0.62889328  0.05134606  0.26393328  1
  O  O1361  1  0.64215931  0.30155369  0.48430036  1
  C  C1362  1  0.54065815  0.03247432  0.36910291  1
  C  C1363  1  0.66509093  0.02242792  0.32874590  1
  C  C1364  1  0.72968566  0.16469738  0.42028831  1
  C  C1365  1  0.65944512  0.38336260  0.26521026  1
  C  C1366  1  0.71149076  0.02221537  0.45134711  1
  H  H1367  1  0.50187012  0.37129841  0.25912343  1
  O  O1368  1  0.71527729  0.30069434  0.49115252  1
  H  H1369  1  0.51426836  0.41567127  0.38675121  1
  Cu  Cu1370  1  0.73985239  0.37064766  0.48241967  1
  H  H1371  1  0.52144164  0.49100515  0.48671261  1
  C  C1372  1  0.53929551  0.09107310  0.25099788  1
  C  C1373  1  0.52254031  0.03287288  0.25195528  1
  H  H1374  1  0.55908437  0.00255152  0.31477446  1
  H  H1375  1  0.66134333  0.49224156  0.38091964  1
  C  C1376  1  0.73999980  0.08488499  0.35573380  1
  C  C1377  1  0.74612696  0.04914684  0.32555582  1
  C  C1378  1  0.69561816  0.05732217  0.47820131  1
  H  H1379  1  0.70527011  0.09979487  0.47558970  1
  C  C1380  1  0.69996115  0.15895747  0.25063405  1
  H  H1381  1  0.50801598  0.31948853  0.41240204  1
  H  H1382  1  0.73220598  0.03755993  0.42724455  1
  N  N1383  1  0.71904384  0.00449790  0.27311184  1
  H  H1384  1  0.53741328  0.00178851  0.27122374  1
  C  C1385  1  0.72099113  0.49186871  0.34460499  1
  H  H1386  1  0.59851425  0.21264040  0.49548210  1
  C  C1387  1  0.53673568  0.09004963  0.49884007  1
  C  C1388  1  0.68246969  0.43277295  0.25474041  1
  H  H1389  1  0.97742960  0.48070760  0.29552900  1
  H  H1390  1  0.95026829  0.17387392  0.29959133  1
  C  C1391  1  0.96680888  0.24935042  0.26757131  1
  H  H1392  1  0.79858240  0.46376370  0.37300937  1
  H  H1393  1  0.90304085  0.28722827  0.47449543  1
  C  C1394  1  0.80269689  0.44892093  0.43114773  1
  C  C1395  1  0.91074618  0.46941179  0.27230150  1
  C  C1396  1  0.86806140  0.00322258  0.31571409  1
  H  H1397  1  0.77758818  0.15449054  0.29756908  1
  H  H1398  1  0.92253160  0.01139740  0.40384048  1
  C  C1399  1  0.86542032  0.12907327  0.38408647  1
  C  C1400  1  0.85894693  0.43040710  0.31464240  1
  C  C1401  1  0.82551346  0.15622556  0.25491318  1
  H  H1402  1  0.85468222  0.15492737  0.27461139  1
  C  C1403  1  0.92383867  0.30662874  0.32684032  1
  C  C1404  1  0.89930007  0.02583512  0.29239254  1
  C  C1405  1  0.93934942  0.30060131  0.46839089  1
  C  C1406  1  0.88042586  0.24531573  0.38747368  1
  C  C1407  1  0.89383877  0.42662275  0.42026538  1
  C  C1408  1  0.78278520  0.15587602  0.26694452  1
  C  C1409  1  0.82134451  0.44993675  0.39505682  1
  C  C1410  1  0.94376942  0.46927737  0.30254385  1
  C  C1411  1  0.86736750  0.43941460  0.38798728  1
  H  H1412  1  0.76612836  0.45412201  0.43479535  1
  C  C1413  1  0.84790640  0.16213098  0.41540116  1
  O  O1414  1  0.81765707  0.16940028  0.47575903  1
  C  C1415  1  0.94664407  0.21987412  0.29688425  1
  H  H1416  1  0.84831103  0.42829508  0.25156515  1
  H  H1417  1  0.88700044  0.29168471  0.38777863  1
  C  C1418  1  0.91468123  0.01415312  0.37293485  1
  H  H1419  1  0.76947723  0.11236473  0.36273199  1
  H  H1420  1  0.90593009  0.12983942  0.33259118  1
  C  C1421  1  0.86973138  0.43840697  0.27674900  1
  H  H1422  1  0.95276625  0.46673533  0.36209811  1
  Cu  Cu1423  1  0.83859676  0.04873263  0.49873355  1
  H  H1424  1  0.92894434  0.41744952  0.41569843  1
  H  H1425  1  0.89240892  0.03164047  0.26193254  1
  C  C1426  1  0.96993433  0.06533713  0.28106089  1
  C  C1427  1  0.90073715  0.21367191  0.35770506  1
  C  C1428  1  0.85361630  0.22022315  0.41605497  1
  C  C1429  1  0.93964747  0.03996478  0.30856652  1
  C  C1430  1  0.96642209  0.31004575  0.26781050  1
  O  O1431  1  0.88561658  0.00145900  0.49690505  1
  C  C1432  1  0.82682929  0.13832119  0.44996059  1
  C  C1433  1  0.87800744  0.43061753  0.45698360  1
  H  H1434  1  0.94163093  0.38406738  0.29931063  1
  H  H1435  1  0.89954678  0.42827827  0.48293186  1
  C  C1436  1  0.94534909  0.33824204  0.29929374  1
  C  C1437  1  0.94793067  0.03226680  0.34799435  1
  H  H1438  1  0.98622402  0.29995138  0.36734500  1
  O  O1439  1  0.94042959  0.02965534  0.45815781  1
  C  C1440  1  0.92999491  0.45983738  0.33945368  1
  H  H1441  1  0.84270594  0.24672406  0.44179012  1
  H  H1442  1  0.85786193  0.08343759  0.38536562  1
  H  H1443  1  0.98172046  0.04192251  0.35757401  1
  H  H1444  1  0.91233215  0.33039912  0.35221872  1
  H  H1445  1  0.76186730  0.14330737  0.41503396  1
  C  C1446  1  0.96658844  0.28361605  0.43997742  1
  C  C1447  1  0.83204275  0.43821278  0.46232931  1
  O  O1448  1  0.82145722  0.08387507  0.45390480  1
  C  C1449  1  0.88516651  0.44225878  0.34756423  1
  C  C1450  1  0.92713491  0.02045608  0.49027676  1
  C  C1451  1  0.88843617  0.15404962  0.35487852  1
  C  C1452  1  0.92427377  0.24716606  0.32773595  1
  H  H1453  1  0.95528380  0.25599100  0.41599613  1
  H  H1454  1  0.75383486  0.22569371  0.46351953  1
  H  H1455  1  0.82747328  0.40794704  0.31855452  1
  H  H1456  1  0.77966429  0.04955051  0.31163020  1
  C  C1457  1  0.95691760  0.33500140  0.49826364  1
  C  C1458  1  0.59978745  0.18720127  0.55431998  1
  O  O1459  1  0.57435224  0.24826334  0.60005678  1
  C  C1460  1  0.58209758  0.24108886  0.56483631  1
  C  C1461  1  0.62256963  0.22967524  0.67864968  1
  H  H1462  1  0.58662140  0.22554982  0.67643565  1
  O  O1463  1  0.58070662  0.28167801  0.54088179  1
  Cu  Cu1464  1  0.56374021  0.31770735  0.62908995  1
  C  C1465  1  0.65130453  0.21652179  0.64951926  1
  H  H1466  1  0.64267502  0.19645698  0.62181747  1
  O  O1467  1  0.62125351  0.34593045  0.61895617  1
  C  C1468  1  0.63924531  0.38376218  0.60101158  1
  H  H1469  1  0.66046128  0.33649365  0.68100517  1
  H  H1470  1  0.60611210  0.43102807  0.67016187  1
  C  C1471  1  0.67362484  0.09430017  0.67531808  1
  H  H1472  1  0.60888148  0.13769173  0.66745834  1
  C  C1473  1  0.62474508  0.45751830  0.65183537  1
  C  C1474  1  0.61040011  0.18159033  0.51485189  1
  H  H1475  1  0.69392520  0.13093255  0.68131540  1
  Cu  Cu1476  1  0.63098137  0.33284254  0.53289728  1
  C  C1477  1  0.64425129  0.44080934  0.61671460  1
  O  O1478  1  0.65694341  0.37772255  0.56777313  1
  C  C1479  1  0.60623736  0.13912217  0.57890635  1
  C  C1480  1  0.64010946  0.08837042  0.52531598  1
  C  C1481  1  0.62394305  0.08958565  0.56446317  1
  H  H1482  1  0.59619792  0.14145772  0.60924816  1
  C  C1483  1  0.66546672  0.48020045  0.59405241  1
  H  H1484  1  0.68675532  0.43414240  0.68427828  1
  H  H1485  1  0.68327132  0.15535050  0.59454067  1
  C  C1486  1  0.57201097  0.45838451  0.53557490  1
  C  C1487  1  0.62853756  0.09687407  0.66966232  1
  H  H1488  1  0.68080527  0.46696614  0.56511773  1
  C  C1489  1  0.60605731  0.04488966  0.66163977  1
  C  C1490  1  0.55714493  0.04759687  0.65739887  1
  C  C1491  1  0.54077910  0.46297697  0.56871825  1
  H  H1492  1  0.63137057  0.05272978  0.58355080  1
  C  C1493  1  0.69570246  0.03922047  0.67394947  1
  O  O1494  1  0.54085112  0.10113722  0.64760158  1
  C  C1495  1  0.64786425  0.36345409  0.70389542  1
  C  C1496  1  0.66384962  0.41712303  0.70615254  1
  C  C1497  1  0.63688360  0.24955148  0.71546594  1
  Cu  Cu1498  1  0.52214189  0.16608762  0.67043854  1
  C  C1499  1  0.69860573  0.21885921  0.65856833  1
  C  C1500  1  0.71600873  0.23336639  0.69602185  1
  H  H1501  1  0.55584508  0.11466497  0.51927602  1
  C  C1502  1  0.68446619  0.25081711  0.72310458  1
  O  O1503  1  0.53264621  0.00941349  0.65992957  1
  C  C1504  1  0.61705633  0.34223431  0.73266465  1
  H  H1505  1  0.64633051  0.04565992  0.73261969  1
  C  C1506  1  0.61341301  0.48836165  0.53374160  1
  C  C1507  1  0.66160990  0.03804541  0.50567407  1
  H  H1508  1  0.72074199  0.33198115  0.71454923  1
  O  O1509  1  0.50665677  0.29126638  0.63859105  1
  O  O1510  1  0.50862654  0.23545596  0.69058553  1
  C  C1511  1  0.71920801  0.16210735  0.60072116  1
  H  H1512  1  0.52616000  0.40215695  0.50637843  1
  C  C1513  1  0.55661485  0.49256564  0.60153279  1
  C  C1514  1  0.50313813  0.05161630  0.50902243  1
  O  O1515  1  0.50491503  0.14140705  0.72226551  1
  N  N1516  1  0.60764345  0.28457158  0.73495798  1
  C  C1517  1  0.55875869  0.42031218  0.50600245  1
  C  C1518  1  0.73334219  0.19711939  0.63107037  1
  C  C1519  1  0.65332673  0.44759483  0.74184500  1
  O  O1520  1  0.50734872  0.08018886  0.56929029  1
  H  H1521  1  0.51287247  0.32467178  0.53839061  1
  C  C1522  1  0.51129914  0.05342816  0.74821235  1
  C  C1523  1  0.63195083  0.13470064  0.50036605  1
  H  H1524  1  0.74136585  0.10460175  0.55747841  1
  C  C1525  1  0.64251106  0.47426014  0.50427231  1
  H  H1526  1  0.67410515  0.49879610  0.50164510  1
  C  C1527  1  0.74272288  0.03847419  0.68551104  1
  H  H1528  1  0.84822707  0.00474671  0.65082229  1
  C  C1529  1  0.80841165  0.00006154  0.71683022  1
  H  H1530  1  0.95094262  0.47708123  0.65768963  1
  C  C1531  1  0.95686773  0.03400822  0.52265510  1
  C  C1532  1  0.82774578  0.10965593  0.56515645  1
  O  O1533  1  0.80968045  0.07508197  0.54040935  1
  C  C1534  1  0.92336150  0.14841797  0.72335520  1
  C  C1535  1  0.77935679  0.20580161  0.63674129  1
  H  H1536  1  0.96573332  0.38279093  0.74655715  1
  Cu  Cu1537  1  0.85088079  0.36820668  0.56485573  1
  C  C1538  1  0.79513475  0.14150993  0.58745386  1
  C  C1539  1  0.93614508  0.03509842  0.55939889  1
  C  C1540  1  0.75547745  0.33856914  0.71575727  1
  C  C1541  1  0.91262209  0.14836878  0.64059348  1
  C  C1542  1  0.97721129  0.47722006  0.67876605  1
  C  C1543  1  0.97015748  0.49488776  0.71652492  1
  H  H1544  1  0.88319514  0.35287060  0.71340532  1
  H  H1545  1  0.99990797  0.36568859  0.63099122  1
  O  O1546  1  0.86704614  0.11591126  0.56590923  1
  C  C1547  1  0.93691617  0.19396860  0.70365215  1
  O  O1548  1  0.82296570  0.36548008  0.61291078  1
  C  C1549  1  0.96345426  0.28991815  0.64387516  1
  H  H1550  1  0.75270959  0.11658716  0.65516905  1
  O  O1551  1  0.77396926  0.43436049  0.50416731  1
  H  H1552  1  0.97422586  0.15858296  0.60131256  1
  C  C1553  1  0.84497310  0.36038499  0.64506390  1
  O  O1554  1  0.83851660  0.43144931  0.53122927  1
  H  H1555  1  0.96999118  0.07391593  0.65368313  1
  H  H1556  1  0.94903997  0.23261820  0.71922446  1
  C  C1557  1  0.89780560  0.10311853  0.66126759  1
  H  H1558  1  0.83155332  0.13038398  0.67693450  1
  H  H1559  1  0.75245799  0.23342867  0.70243364  1
  C  C1560  1  0.99496328  0.32101752  0.62439999  1
  C  C1561  1  0.95725766  0.23165784  0.63642596  1
  Cu  Cu1562  1  0.91990294  0.37930939  0.60156395  1
  N  N1563  1  0.87408188  0.06662209  0.72165042  1
  H  H1564  1  0.98990009  0.31401051  0.70748283  1
  C  C1565  1  0.93034757  0.19317702  0.66238134  1
  H  H1566  1  0.94489396  0.31361572  0.66523096  1
  C  C1567  1  0.96014411  0.04924139  0.59040825  1
  H  H1568  1  0.75481614  0.34864720  0.65415230  1
  O  O1569  1  0.88894104  0.34123374  0.52866310  1
  O  O1570  1  0.94483913  0.38444310  0.55547010  1
  H  H1571  1  0.87836952  0.06825318  0.64712642  1
  H  H1572  1  0.84629044  0.18731038  0.61373810  1
  C  C1573  1  0.92841113  0.35567898  0.52899397  1
  H  H1574  1  0.94424352  0.04476583  0.61780185  1
  C  C1575  1  0.98216670  0.20201173  0.60877049  1
  C  C1576  1  0.77478369  0.34593009  0.67994975  1
  C  C1577  1  0.81078539  0.18159949  0.61419590  1
  H  H1578  1  0.90157436  0.02156474  0.56352126  1
  O  O1579  1  0.88464329  0.37255020  0.64584907  1
  C  C1580  1  0.81265044  0.09295945  0.68430454  1
  C  C1581  1  0.84733938  0.34670591  0.71468756  1
  H  H1582  1  0.78984162  0.23603435  0.65747155  1
  C  C1583  1  0.76883215  0.08550461  0.67279220  1
  C  C1584  1  0.90080520  0.10474812  0.70185636  1
  C  C1585  1  0.82163277  0.34839905  0.68039767  1
  C  C1586  1  0.83284821  0.05086576  0.70787657  1
  C  C1587  1  0.75011354  0.13180217  0.58083812  1
  H  H1588  1  0.91203052  0.14860210  0.60793080  1
  H  H1589  1  0.96085722  0.07304227  0.74427085  1
  C  C1590  1  0.82838161  0.34459728  0.74997004  1
  C  C1591  1  0.81541484  0.43553018  0.50087012  1
  C  C1592  1  0.69448670  0.15345892  0.84274380  1
  C  C1593  1  0.68862616  0.21343356  0.83951679  1
  C  C1594  1  0.63221183  0.14626421  0.88636759  1
  C  C1595  1  0.65763659  0.23888208  0.86178558  1
  C  C1596  1  0.62909206  0.20679532  0.88690568  1
  H  H1597  1  0.65415426  0.28521875  0.85926457  1
  C  C1598  1  0.59959376  0.29828078  0.91036323  1
  C  C1599  1  0.59952707  0.23844474  0.91272870  1
  C  C1600  1  0.53605226  0.29628447  0.95058713  1
  C  C1601  1  0.54201054  0.23937722  0.95883846  1
  C  C1602  1  0.57529092  0.21050207  0.94178101  1
  H  H1603  1  0.56930186  0.36498296  0.77721625  1
  H  H1604  1  0.62828690  0.31864456  0.89450639  1
  H  H1605  1  0.60568343  0.46235730  0.78681479  1
  H  H1606  1  0.60465040  0.12137607  0.90250045  1
  C  C1607  1  0.66816099  0.12102904  0.86841971  1
  H  H1608  1  0.58047609  0.16501585  0.94810129  1
  H  H1609  1  0.61167896  0.38766982  0.86559356  1
  C  C1610  1  0.56612158  0.32599085  0.92746393  1
  H  H1611  1  0.65557965  0.35929081  0.82234135  1
  C  C1612  1  0.61641373  0.43143195  0.76469461  1
  C  C1613  1  0.71995350  0.08077760  0.80098002  1
  H  H1614  1  0.67546643  0.07567880  0.87382535  1
  N  N1615  1  0.73007805  0.12783334  0.82387480  1
  C  C1616  1  0.63252932  0.42415938  0.86823654  1
  C  C1617  1  0.56752336  0.19112441  0.80915752  1
  O  O1618  1  0.56104141  0.46292934  0.94688810  1
  H  H1619  1  0.58025952  0.15538523  0.82515279  1
  C  C1620  1  0.67644138  0.42169383  0.88302062  1
  C  C1621  1  0.51805449  0.45272118  0.87987141  1
  O  O1622  1  0.57348021  0.05235466  0.90778350  1
  H  H1623  1  0.51562189  0.41885813  0.90014064  1
  C  C1624  1  0.59302761  0.21531261  0.78107683  1
  H  H1625  1  0.70920370  0.24373731  0.82099298  1
  N  N1626  1  0.69671865  0.36819815  0.88758003  1
  C  C1627  1  0.68896521  0.08894468  0.77214035  1
  C  C1628  1  0.69115653  0.35499413  0.82255109  1
  C  C1629  1  0.70117197  0.34468737  0.92422729  1
  H  H1630  1  0.52112488  0.21629148  0.97958550  1
  C  C1631  1  0.68792002  0.38234162  0.95305316  1
  H  H1632  1  0.67290722  0.42187814  0.94508003  1
  C  C1633  1  0.52357861  0.21016866  0.81788427  1
  H  H1634  1  0.52290947  0.22433307  0.89595512  1
  H  H1635  1  0.62686481  0.19988444  0.77504861  1
  H  H1636  1  0.56351610  0.37519130  0.92550971  1
  H  H1637  1  0.61134288  0.03206181  0.79361306  1
  C  C1638  1  0.71682323  0.28745554  0.93142436  1
  C  C1639  1  0.61720731  0.47435133  0.85498223  1
  C  C1640  1  0.71362714  0.26823228  0.96827599  1
  H  H1641  1  0.58306797  0.47625328  0.84290849  1
  H  H1642  1  0.72245607  0.26033253  0.90797938  1
  C  C1643  1  0.55298738  0.06544853  0.76323859  1
  C  C1644  1  0.71576609  0.34176371  0.85628683  1
  C  C1645  1  0.71429365  0.35480618  0.78780199  1
  C  C1646  1  0.69977166  0.47151152  0.89408664  1
  Cu  Cu1647  1  0.52201165  0.44503326  0.99201961  1
  H  H1648  1  0.69620675  0.36849076  0.76249228  1
  H  H1649  1  0.67975869  0.44481762  0.80880778  1
  C  C1650  1  0.68778053  0.48827283  0.75294064  1
  C  C1651  1  0.50855980  0.25908925  0.79648473  1
  C  C1652  1  0.69727601  0.47906877  0.79266432  1
  H  H1653  1  0.72476699  0.22396400  0.97560833  1
  C  C1654  1  0.73987468  0.02570288  0.80783507  1
  C  C1655  1  0.57719611  0.02375601  0.78256313  1
  C  C1656  1  0.53402637  0.28634112  0.76941759  1
  C  C1657  1  0.57725686  0.26450494  0.76205947  1
  C  C1658  1  0.59776165  0.37793428  0.75995938  1
  H  H1659  1  0.69190152  0.26973108  0.75023471  1
  H  H1660  1  0.56867902  0.10812968  0.76050216  1
  H  H1661  1  0.51419589  0.40287429  0.76382924  1
  C  C1662  1  0.68910981  0.36402315  0.99093203  1
  H  H1663  1  0.73200712  0.46539296  0.90769996  1
  C  C1664  1  0.50066473  0.33049552  0.96647095  1
  H  H1665  1  0.50756854  0.04926794  0.85429138  1
  C  C1666  1  0.70601066  0.30971247  0.99807343  1
  C  C1667  1  0.55969881  0.00595534  0.91138432  1
  C  C1668  1  0.50109011  0.00399756  0.86179059  1
  C  C1669  1  0.67110625  0.04143829  0.75462459  1
  H  H1670  1  0.52147807  0.32193203  0.75403215  1
  H  H1671  1  0.68062282  0.12952550  0.76375670  1
  C  C1672  1  0.87459535  0.01844571  0.82104674  1
  C  C1673  1  0.92900021  0.01704073  0.87264208  1
  Cu  Cu1674  1  0.82762093  0.39460955  0.91984861  1
  H  H1675  1  0.98085153  0.20328848  0.93156702  1
  O  O1676  1  0.84652705  0.43422830  0.83365281  1
  C  C1677  1  0.95819307  0.05455225  0.93297658  1
  C  C1678  1  0.92030699  0.31231010  0.83871250  1
  H  H1679  1  0.76713278  0.02443676  0.82941500  1
  C  C1680  1  0.88937199  0.05149405  0.75859837  1
  H  H1681  1  0.84969716  0.34747379  0.77641969  1
  C  C1682  1  0.97005597  0.31262762  0.78384326  1
  H  H1683  1  0.82155970  0.02140127  0.77661182  1
  C  C1684  1  0.91983563  0.02549772  0.83104692  1
  C  C1685  1  0.77295513  0.14491839  0.82967148  1
  C  C1686  1  0.84958282  0.15106207  0.80751544  1
  C  C1687  1  0.95089300  0.36643725  0.77206479  1
  H  H1688  1  0.85140851  0.00704895  0.84363235  1
  H  H1689  1  0.90028628  0.18961863  0.91747613  1
  C  C1690  1  0.76173091  0.32602413  0.85655229  1
  C  C1691  1  0.98763016  0.15569341  0.83584845  1
  H  H1692  1  0.75574533  0.18031117  0.88426472  1
  C  C1693  1  0.85764306  0.02942647  0.78398349  1
  C  C1694  1  0.93896953  0.00473861  0.99368450  1
  Cu  Cu1695  1  0.77186928  0.35149995  0.96131228  1
  C  C1696  1  0.95637112  0.28970267  0.82005897  1
  H  H1697  1  0.97912158  0.08460343  0.87560682  1
  C  C1698  1  0.96959242  0.18822133  0.90243587  1
  C  C1699  1  0.78180139  0.17166214  0.86493802  1
  H  H1700  1  0.87450940  0.14838569  0.78515106  1
  C  C1701  1  0.75943102  0.33578184  0.78807354  1
  H  H1702  1  0.90205463  0.43164739  0.78180132  1
  H  H1703  1  0.83589525  0.19767717  0.90177736  1
  H  H1704  1  0.98669455  0.05206717  0.80861647  1
  O  O1705  1  0.79812261  0.42113271  0.96069180  1
  C  C1706  1  0.85042563  0.31970504  0.97979890  1
  C  C1707  1  0.80670193  0.13341394  0.80069650  1
  C  C1708  1  0.92531478  0.17918558  0.89506443  1
  C  C1709  1  0.93628981  0.05727450  0.76546308  1
  H  H1710  1  0.79791012  0.11863380  0.77109681  1
  C  C1711  1  0.86172003  0.16941945  0.84628577  1
  H  H1712  1  0.93135763  0.14597326  0.75413163  1
  H  H1713  1  0.97589890  0.08378607  0.95059140  1
  H  H1714  1  0.78386316  0.31823990  0.88198386  1
  C  C1715  1  0.78578946  0.47084507  0.98209857  1
  O  O1716  1  0.81020531  0.30104078  0.97861669  1
  O  O1717  1  0.85086740  0.36404017  0.87510856  1
  H  H1718  1  0.92878971  0.14083736  0.79945141  1
  C  C1719  1  0.90185873  0.36370342  0.82588764  1
  C  C1720  1  0.86607820  0.38847735  0.84592024  1
  H  H1721  1  0.81670105  0.30057838  0.82007987  1
  C  C1722  1  0.94984963  0.04687897  0.80296300  1
  C  C1723  1  0.82662879  0.18255217  0.87275822  1
  C  C1724  1  0.95720751  0.05676934  0.89264975  1
  O  O1725  1  0.86447433  0.34313965  0.95065324  1
  H  H1726  1  0.97086297  0.25136265  0.83318118  1
  H  H1727  1  0.90748328  0.29062341  0.86498261  1
  C  C1728  1  0.90977268  0.16423398  0.85689085  1
  C  C1729  1  0.78324324  0.31757552  0.82227409  1
  C  C1730  1  0.91712435  0.39241493  0.79150274  1
  C  C1731  1  0.94225557  0.15223301  0.82848502  1
  C  C1732  1  0.93680848  0.00863567  0.95167419  1
  C  C1733  1  0.78128002  0.33809064  0.75021791  1
  O  O1734  1  0.61209188  0.82454665  0.15983018  1
  C  C1735  1  0.58454574  0.81656843  0.18402465  1
  H  H1736  1  0.65558341  0.95114945  0.10663724  1
  C  C1737  1  0.65602907  0.85223674  0.07574218  1
  C  C1738  1  0.68132930  0.85643835  0.10847397  1
  H  H1739  1  0.66570302  0.84108033  0.13521733  1
  H  H1740  1  0.62391958  0.83043032  0.07331484  1
  H  H1741  1  0.64928254  0.59442663  0.14484808  1
  O  O1742  1  0.56870067  0.64033971  0.13785546  1
  O  O1743  1  0.54758632  0.78566747  0.18099142  1
  H  H1744  1  0.57188783  0.80232941  0.11286668  1
  C  C1745  1  0.56904142  0.77538336  0.08675149  1
  H  H1746  1  0.63090908  0.72978120  0.09737478  1
  C  C1747  1  0.60112430  0.73596347  0.08013438  1
  C  C1748  1  0.59550535  0.70561796  0.04643877  1
  Cu  Cu1749  1  0.71514785  0.69989201  0.06537743  1
  C  C1750  1  0.62988749  0.66480057  0.03499764  1
  O  O1751  1  0.66127071  0.65745223  0.05848810  1
  C  C1752  1  0.55802327  0.71013716  0.02342795  1
  C  C1753  1  0.67383076  0.87058192  0.04108259  1
  H  H1754  1  0.58335964  0.82727965  0.02567432  1
  C  C1755  1  0.65460081  0.52615337  0.21179966  1
  H  H1756  1  0.54488437  0.87832451  0.11102922  1
  C  C1757  1  0.54355765  0.58599466  0.19027814  1
  H  H1758  1  0.65178619  0.87818866  0.20017555  1
  C  C1759  1  0.61241838  0.55890957  0.09542776  1
  H  H1760  1  0.60137450  0.59601810  0.08175980  1
  C  C1761  1  0.64096669  0.55673096  0.12816018  1
  C  C1762  1  0.52600192  0.75058268  0.03129886  1
  C  C1763  1  0.53165613  0.78652997  0.06324234  1
  C  C1764  1  0.54685077  0.59792838  0.15009588  1
  Cu  Cu1765  1  0.55067212  0.71288690  0.15708561  1
  O  O1766  1  0.71483330  0.67491546  0.11659978  1
  O  O1767  1  0.56690866  0.54806661  0.02729711  1
  C  C1768  1  0.51186216  0.87492407  0.09889882  1
  C  C1769  1  0.71585842  0.89809574  0.04078476  1
  C  C1770  1  0.72253738  0.88327016  0.10911066  1
  O  O1771  1  0.52590920  0.56799705  0.12638350  1
  C  C1772  1  0.67666625  0.96552755  0.18068160  1
  H  H1773  1  0.69155099  0.95288253  0.15367274  1
  C  C1774  1  0.59213217  0.83701236  0.22262373  1
  C  C1775  1  0.63224367  0.86796438  0.22610185  1
  C  C1776  1  0.56775631  0.61425692  0.21920516  1
  H  H1777  1  0.59185123  0.64725075  0.21223943  1
  H  H1778  1  0.61691608  0.51735339  0.20847654  1
  O  O1779  1  0.73345098  0.70610587  0.17456825  1
  O  O1780  1  0.73732409  0.72742195  0.02295435  1
  C  C1781  1  0.74275624  0.68410659  0.14284341  1
  C  C1782  1  0.51481855  0.54128418  0.20012146  1
  H  H1783  1  0.61448728  0.95712489  0.04775776  1
  C  C1784  1  0.62053453  0.96525496  0.10806273  1
  C  C1785  1  0.72651946  0.53393159  0.17421498  1
  O  O1786  1  0.72967470  0.86030122  0.17408447  1
  C  C1787  1  0.70343162  0.97347581  0.21176835  1
  C  C1788  1  0.63133814  0.98666325  0.17854760  1
  H  H1789  1  0.50114319  0.51622405  0.17594348  1
  C  C1790  1  0.65191263  0.50325676  0.14396993  1
  Cu  Cu1791  1  0.73327598  0.78127828  0.18131227  1
  C  C1792  1  0.68110446  0.51631812  0.17851851  1
  H  H1793  1  0.74667299  0.52591294  0.14962801  1
  C  C1794  1  0.74552309  0.56234320  0.20498545  1
  C  C1795  1  0.73909578  0.90519439  0.07436439  1
  H  H1796  1  0.72962303  0.90794157  0.01331961  1
  C  C1797  1  0.50040023  0.83345270  0.06993676  1
  H  H1798  1  0.66175451  0.66163267  0.23182201  1
  C  C1799  1  0.71802506  0.57831897  0.23591032  1
  C  C1800  1  0.67342827  0.55868091  0.24063954  1
  C  C1801  1  0.60582070  0.83698572  0.00203490  1
  H  H1802  1  0.73904904  0.96094396  0.20916525  1
  C  C1803  1  0.64897263  0.86257602  0.00499707  1
  C  C1804  1  0.74693138  0.88541297  0.14449539  1
  C  C1805  1  0.57933235  0.50350076  0.04212595  1
  C  C1806  1  0.60044631  0.50658349  0.07885378  1
  O  O1807  1  0.62699834  0.64130876  0.00389562  1
  C  C1808  1  0.50576252  0.52576355  0.23741845  1
  C  C1809  1  0.59675330  0.97231587  0.07421346  1
  C  C1810  1  0.60258739  0.98326324  0.14394962  1
  H  H1811  1  0.77334984  0.55383547  0.03366537  1
  H  H1812  1  0.99346933  0.94526069  0.18738572  1
  C  C1813  1  0.97774118  0.55499851  0.11286419  1
  O  O1814  1  0.91888975  0.96072319  0.01128551  1
  O  O1815  1  0.95541680  0.87162389  0.09417603  1
  C  C1816  1  0.87721084  0.64988532  0.12646563  1
  H  H1817  1  0.86719323  0.57933887  0.20963584  1
  C  C1818  1  0.86382697  0.66712417  0.16431939  1
  O  O1819  1  0.83306901  0.78333558  0.20717833  1
  C  C1820  1  0.84646517  0.96008372  0.23825693  1
  O  O1821  1  0.78061279  0.91342344  0.14653407  1
  C  C1822  1  0.99195567  0.60532329  0.19590930  1
  H  H1823  1  0.77188748  0.92626551  0.07452774  1
  C  C1824  1  0.89536510  0.89339017  0.15507444  1
  H  H1825  1  0.88653070  0.67487554  0.18937990  1
  H  H1826  1  0.88190240  0.87224165  0.12879422  1
  C  C1827  1  0.95878100  0.93852396  0.18821928  1
  C  C1828  1  0.78933230  0.66803462  0.13651565  1
  C  C1829  1  0.79340165  0.51836491  0.04512326  1
  H  H1830  1  0.90694161  0.53866140  0.11210728  1
  H  H1831  1  0.94743958  0.54302136  0.17182455  1
  C  C1832  1  0.86602887  0.53543169  0.19484121  1
  C  C1833  1  0.96089405  0.56227261  0.19779066  1
  C  C1834  1  0.93239389  0.95196424  0.21883300  1
  O  O1835  1  0.76501994  0.78399001  0.22750424  1
  H  H1836  1  0.80310266  0.69422400  0.19349707  1
  C  C1837  1  0.80799002  0.78991246  0.23303569  1
  C  C1838  1  0.81901136  0.67745727  0.16732130  1
  H  H1839  1  0.78084677  0.57392476  0.20511442  1
  C  C1840  1  0.93412521  0.57149372  0.11745973  1
  C  C1841  1  0.97005367  0.89667781  0.12475394  1
  H  H1842  1  0.86089031  0.63001297  0.06452939  1
  H  H1843  1  0.77938373  0.65349060  0.07745703  1
  C  C1844  1  0.95848695  0.67128536  0.11426189  1
  H  H1845  1  0.82595461  0.56575731  0.14850784  1
  H  H1846  1  0.94568698  0.97846495  0.24261935  1
  H  H1847  1  0.95242639  0.71626845  0.11862139  1
  C  C1848  1  0.84614362  0.53016293  0.15933721  1
  C  C1849  1  0.94866021  0.54303485  0.23570295  1
  C  C1850  1  0.92422103  0.63060940  0.11979877  1
  H  H1851  1  0.82934531  0.90577658  0.18308227  1
  O  O1852  1  0.97218187  0.86105610  0.02468532  1
  C  C1853  1  0.93977102  0.90846469  0.15751700  1
  C  C1854  1  0.84904140  0.64333567  0.09321749  1
  C  C1855  1  0.80334066  0.65125480  0.09951437  1
  Cu  Cu1856  1  0.94030064  0.91348131  0.05076526  1
  C  C1857  1  0.86671077  0.91084465  0.18434891  1
  C  C1858  1  0.88572490  0.94212946  0.21451366  1
  H  H1859  1  0.80233915  0.55823797  0.10015190  1
  C  C1860  1  0.80960414  0.52190997  0.08167998  1
  H  H1861  1  0.98488530  0.50814847  0.11332483  1
  O  O1862  1  0.78197726  0.65614735  0.01183935  1
  C  C1863  1  0.75538577  0.68978745  0.00091282  1
  O  O1864  1  0.94213413  0.78538031  0.00029207  1
  C  C1865  1  0.63930860  0.71897799  0.31839377  1
  C  C1866  1  0.60272504  0.74323983  0.34278492  1
  C  C1867  1  0.69959886  0.85653100  0.37787638  1
  C  C1868  1  0.68363947  0.90016228  0.40213254  1
  C  C1869  1  0.68111975  0.84832632  0.34125333  1
  C  C1870  1  0.61737381  0.90767509  0.36340195  1
  C  C1871  1  0.63790844  0.91988658  0.39779838  1
  H  H1872  1  0.61347450  0.60264701  0.34477265  1
  C  C1873  1  0.60436727  0.56393784  0.35816708  1
  C  C1874  1  0.68981124  0.67785904  0.41913560  1
  C  C1875  1  0.66697731  0.71344016  0.44430967  1
  H  H1876  1  0.62990755  0.70863813  0.44957447  1
  C  C1877  1  0.64191165  0.87652236  0.33406514  1
  C  C1878  1  0.67960612  0.70679014  0.33840089  1
  H  H1879  1  0.68742970  0.72380337  0.36606761  1
  C  C1880  1  0.70881657  0.67286929  0.31997972  1
  C  C1881  1  0.63248678  0.70644968  0.27887629  1
  C  C1882  1  0.69966985  0.65099881  0.28311469  1
  H  H1883  1  0.58232056  0.92070489  0.35691467  1
  H  H1884  1  0.67410669  0.64480575  0.40324745  1
  C  C1885  1  0.61861153  0.87072238  0.29514193  1
  C  C1886  1  0.69980310  0.96264321  0.45628615  1
  C  C1887  1  0.61534861  0.77386621  0.37637420  1
  H  H1888  1  0.65019219  0.78484702  0.38183534  1
  H  H1889  1  0.55913561  0.82707994  0.31571582  1
  C  C1890  1  0.57848651  0.84056446  0.28938973  1
  H  H1891  1  0.59192560  0.81955731  0.42542177  1
  H  H1892  1  0.57426010  0.62815120  0.27852924  1
  C  C1893  1  0.59441694  0.61599432  0.41946860  1
  H  H1894  1  0.69630268  0.82105401  0.31966247  1
  H  H1895  1  0.68111851  0.58311166  0.41543103  1
  N  N1896  1  0.71429824  0.92398283  0.42902976  1
  C  C1897  1  0.58266702  0.79482695  0.40029103  1
  C  C1898  1  0.59740158  0.56118882  0.39790489  1
  H  H1899  1  0.62404638  0.95086552  0.41718125  1
  C  C1900  1  0.55672813  0.60242465  0.25705971  1
  C  C1901  1  0.70308219  0.56473531  0.39169228  1
  O  O1902  1  0.58606444  0.65834385  0.40337298  1
  C  C1903  1  0.68952252  0.76085774  0.45964626  1
  C  C1904  1  0.55861273  0.73387431  0.33230095  1
  C  C1905  1  0.66683524  0.94370397  0.48225040  1
  H  H1906  1  0.55040330  0.71060084  0.30602999  1
  C  C1907  1  0.53705466  0.78715337  0.38843364  1
  N  N1908  1  0.73112730  0.61358588  0.26629371  1
  H  H1909  1  0.65309955  0.90124522  0.48235978  1
  C  C1910  1  0.73531150  0.77196529  0.45105299  1
  O  O1911  1  0.60254774  0.61682833  0.45778297  1
  H  H1912  1  0.67454643  0.91233291  0.26606909  1
  C  C1913  1  0.64315919  0.88702073  0.26242474  1
  C  C1914  1  0.52608617  0.75931315  0.35465202  1
  C  C1915  1  0.73828066  0.68440428  0.41513065  1
  C  C1916  1  0.52368669  0.56105412  0.26721100  1
  C  C1917  1  0.60264503  0.51753698  0.33420308  1
  C  C1918  1  0.56372475  0.82528747  0.25371059  1
  C  C1919  1  0.50731855  0.53194215  0.48631938  1
  H  H1920  1  0.60788161  0.52245063  0.30322423  1
  C  C1921  1  0.74470670  0.59235014  0.38147958  1
  H  H1922  1  0.51898626  0.63772332  0.32448352  1
  H  H1923  1  0.74018019  0.65989567  0.33512651  1
  H  H1924  1  0.64099233  0.99204378  0.31696970  1
  H  H1925  1  0.73097030  0.94338694  0.35365521  1
  H  H1926  1  0.60139181  0.75902288  0.47822567  1
  H  H1927  1  0.72891597  0.83239723  0.38656074  1
  C  C1928  1  0.66324885  0.67012183  0.26125299  1
  H  H1929  1  0.65454406  0.57533422  0.26570305  1
  H  H1930  1  0.60260418  0.72218649  0.26547208  1
  C  C1931  1  0.51176838  0.59498462  0.33447473  1
  H  H1932  1  0.51441131  0.61705586  0.39242234  1
  C  C1933  1  0.50566435  0.58344216  0.37234401  1
  O  O1934  1  0.51305928  0.83998099  0.44097068  1
  H  H1935  1  0.53176406  0.98979482  0.38002945  1
  H  H1936  1  0.72396006  0.50191902  0.27103311  1
  H  H1937  1  0.58783527  0.50336107  0.44617816  1
  H  H1938  1  0.53298823  0.79988678  0.25186859  1
  C  C1939  1  0.50279203  0.81789666  0.41185043  1
  C  C1940  1  0.59100401  0.50756846  0.41485226  1
  C  C1941  1  0.66893076  0.79340674  0.49159480  1
  C  C1942  1  0.69183684  0.51554917  0.37344709  1
  C  C1943  1  0.50591298  0.55191207  0.30557337  1
  C  C1944  1  0.62126479  0.78843798  0.49502608  1
  H  H1945  1  0.66569452  0.63271970  0.49713477  1
  Cu  Cu1946  1  0.56155696  0.62588248  0.49521315  1
  H  H1947  1  0.74060483  0.66001008  0.48810415  1
  C  C1948  1  0.99733225  0.59469368  0.46208335  1
  H  H1949  1  0.79921502  0.67083584  0.48185771  1
  H  H1950  1  0.89821221  0.80062043  0.25325939  1
  C  C1951  1  0.76083369  0.52178140  0.33485842  1
  C  C1952  1  0.77931134  0.93556243  0.26908747  1
  H  H1953  1  0.75040838  0.81131559  0.46349487  1
  H  H1954  1  0.76637671  0.70940847  0.28128600  1
  H  H1955  1  0.75833444  0.80644149  0.29234543  1
  C  C1956  1  0.99723872  0.61214496  0.26687187  1
  H  H1957  1  0.77630226  0.50381804  0.30886858  1
  C  C1958  1  0.91093453  0.65450885  0.31019065  1
  C  C1959  1  0.76285131  0.99068700  0.26151499  1
  H  H1960  1  0.79832015  0.53191456  0.26643605  1
  H  H1961  1  0.83587339  0.87606752  0.26402487  1
  C  C1962  1  0.82147587  0.91843549  0.25847194  1
  H  H1963  1  0.78386581  0.82332320  0.35857930  1
  H  H1964  1  0.89707627  0.72779334  0.39197746  1
  C  C1965  1  0.87588484  0.69411469  0.40092837  1
  C  C1966  1  0.83235171  0.68734515  0.29424475  1
  C  C1967  1  0.76013204  0.73188382  0.43094619  1
  C  C1968  1  0.80743075  0.64447648  0.40203973  1
  C  C1969  1  0.79410588  0.80996700  0.29973572  1
  H  H1970  1  0.94468035  0.55968728  0.43204694  1
  C  C1971  1  0.79421937  0.94749001  0.43628960  1
  C  C1972  1  0.99469934  0.69728428  0.47923408  1
  C  C1973  1  0.80839814  0.57500558  0.27323876  1
  H  H1974  1  0.86384291  0.96743335  0.43920328  1
  H  H1975  1  0.94106764  0.89842082  0.47535987  1
  C  C1976  1  0.95034114  0.69972716  0.46806644  1
  C  C1977  1  0.93324006  0.65229781  0.44641027  1
  C  C1978  1  0.83163275  0.69071217  0.38735487  1
  C  C1979  1  0.96675766  0.57072786  0.26887819  1
  H  H1980  1  0.98217496  0.76608699  0.29667907  1
  H  H1981  1  0.96547902  0.82181538  0.43790021  1
  C  C1982  1  0.96615014  0.66111907  0.36129173  1
  H  H1983  1  0.81707469  0.71920472  0.36605995  1
  C  C1984  1  0.95529786  0.59904565  0.44654569  1
  H  H1985  1  0.87605213  0.57457715  0.45969214  1
  H  H1986  1  0.79127662  0.93787171  0.46755536  1
  C  C1987  1  0.77626366  0.62048582  0.27149730  1
  H  H1988  1  0.80190655  0.56090765  0.43330431  1
  C  C1989  1  0.93006078  0.82294880  0.43054640  1
  H  H1990  1  0.92961038  0.73509547  0.47247040  1
  C  C1991  1  0.93356099  0.69894643  0.28984203  1
  H  H1992  1  0.79971233  0.96623896  0.32389356  1
  H  H1993  1  0.98111749  0.64612456  0.38818035  1
  C  C1994  1  0.89881985  0.82397691  0.46165969  1
  C  C1995  1  0.82138585  0.59712675  0.42436152  1
  C  C1996  1  0.91640777  0.82641459  0.39281261  1
  C  C1997  1  0.85288734  0.83053361  0.45250549  1
  C  C1998  1  0.96565236  0.72839901  0.30867246  1
  C  C1999  1  0.79911247  0.95982501  0.35585283  1
  H  H2000  1  0.79438028  0.73864911  0.42889639  1
  C  C2001  1  0.86411604  0.60119005  0.43799362  1
  C  C2002  1  0.85473075  0.82514272  0.34467829  1
  H  H2003  1  0.92618004  0.70747962  0.26165924  1
  C  C2004  1  0.83799629  0.97028283  0.37871001  1
  C  C2005  1  0.83799208  0.83434404  0.41591582  1
  C  C2006  1  0.87398830  0.80655247  0.27709255  1
  C  C2007  1  0.86907878  0.82903469  0.38499081  1
  N  N2008  1  0.75983106  0.64076372  0.39683673  1
  C  C2009  1  0.77318664  0.57171159  0.35164054  1
  H  H2010  1  0.87521794  0.55209762  0.28360567  1
  C  C2011  1  0.76098065  0.94212785  0.37240852  1
  H  H2012  1  0.93930075  0.82823762  0.36732178  1
  C  C2013  1  0.97950608  0.71239169  0.34609741  1
  C  C2014  1  0.86356927  0.64311802  0.29758799  1
  H  H2015  1  0.80204196  0.84002611  0.41003492  1
  C  C2016  1  0.88793786  0.65161607  0.42708058  1
  H  H2017  1  0.86282754  0.73135124  0.45997691  1
  H  H2018  1  0.92322691  0.82722532  0.32157257  1
  C  C2019  1  0.88785318  0.81926530  0.31437057  1
  H  H2020  1  0.95120566  0.56136760  0.29670297  1
  C  C2021  1  0.85124146  0.58702549  0.28554324  1
  H  H2022  1  0.91062031  0.59729967  0.35510910  1
  C  C2023  1  0.75617501  0.93574204  0.41358297  1
  H  H2024  1  0.80470127  0.59252968  0.34348669  1
  C  C2025  1  0.93018945  0.63297503  0.34378578  1
  C  C2026  1  0.80826945  0.82288671  0.33624168  1
  C  C2027  1  0.82634666  0.79789674  0.27192382  1
  H  H2028  1  0.84308804  0.73169295  0.29928094  1
  H  H2029  1  0.75828661  0.90338157  0.28224784  1
  H  H2030  1  0.82874221  0.83406695  0.47667146  1
  C  C2031  1  0.83321496  0.96244645  0.41953533  1
  C  C2032  1  0.79081219  0.67668398  0.28034415  1
  C  C2033  1  0.87387030  0.99498160  0.35559849  1
  H  H2034  1  0.83821887  0.98876921  0.30129954  1
  C  C2035  1  0.85120221  0.73329495  0.49162535  1
  C  C2036  1  0.66184754  0.66475967  0.55735837  1
  O  O2037  1  0.59805292  0.61567816  0.53614744  1
  C  C2038  1  0.61373139  0.65337226  0.56049318  1
  O  O2039  1  0.59362760  0.67297263  0.58588748  1
  O  O2040  1  0.62530502  0.90508233  0.60521205  1
  O  O2041  1  0.56199237  0.86670675  0.58642377  1
  C  C2042  1  0.60509380  0.87690154  0.58293659  1
  O  O2043  1  0.54377184  0.83019342  0.68404789  1
  C  C2044  1  0.62600381  0.84679703  0.54993043  1
  H  H2045  1  0.66314678  0.70848728  0.61082507  1
  H  H2046  1  0.60659021  0.62991962  0.69031453  1
  H  H2047  1  0.56428469  0.81086268  0.52967578  1
  H  H2048  1  0.56794631  0.91680252  0.69463932  1
  C  C2049  1  0.59809632  0.90489366  0.71148567  1
  C  C2050  1  0.64223292  0.64100817  0.68450138  1
  C  C2051  1  0.67237133  0.85366526  0.54793070  1
  H  H2052  1  0.68825804  0.88075767  0.56994689  1
  C  C2053  1  0.66275108  0.68556389  0.70243378  1
  H  H2054  1  0.60823004  0.95558579  0.64933458  1
  C  C2055  1  0.68312991  0.69635558  0.58594185  1
  C  C2056  1  0.67086077  0.60570493  0.66267019  1
  Cu  Cu2057  1  0.54899066  0.85158958  0.63510147  1
  Cu  Cu2058  1  0.52519086  0.71378397  0.70812703  1
  H  H2059  1  0.69167033  0.95071977  0.65954511  1
  C  C2060  1  0.57506378  0.81065791  0.70548543  1
  C  C2061  1  0.60842752  0.84849125  0.71973139  1
  O  O2062  1  0.57545288  0.75940635  0.71528222  1
  H  H2063  1  0.64149895  0.71147590  0.72064114  1
  C  C2064  1  0.68300831  0.65190982  0.52228034  1
  C  C2065  1  0.72777316  0.66476620  0.51816191  1
  C  C2066  1  0.62511603  0.94674532  0.72561503  1
  C  C2067  1  0.70935024  0.69737748  0.69803470  1
  C  C2068  1  0.59919705  0.81590921  0.52309219  1
  C  C2069  1  0.72755122  0.70766197  0.58263538  1
  C  C2070  1  0.65188817  0.55082493  0.64411250  1
  H  H2071  1  0.52632609  0.59458108  0.58052052  1
  C  C2072  1  0.71524742  0.62128291  0.65437525  1
  H  H2073  1  0.62359826  0.96745970  0.52797495  1
  N  N2074  1  0.72985909  0.73225946  0.72471130  1
  H  H2075  1  0.68486459  0.57022269  0.58968852  1
  C  C2076  1  0.66709941  0.53698636  0.60640215  1
  C  C2077  1  0.73619304  0.66694415  0.67159062  1
  H  H2078  1  0.70012807  0.54172378  0.70552722  1
  C  C2079  1  0.71230514  0.53488212  0.73612330  1
  C  C2080  1  0.64521618  0.83514665  0.74451288  1
  O  O2081  1  0.74634682  0.93161355  0.55424189  1
  C  C2082  1  0.69395824  0.82665093  0.51777640  1
  C  C2083  1  0.67252758  0.98999846  0.66239008  1
  H  H2084  1  0.72924760  0.83326458  0.51507778  1
  H  H2085  1  0.74871082  0.80478064  0.66435093  1
  C  C2086  1  0.62729505  0.99247630  0.65866967  1
  C  C2087  1  0.65153036  0.98063186  0.50947079  1
  H  H2088  1  0.61907653  0.99223868  0.71914850  1
  H  H2089  1  0.54314834  0.52818806  0.65595508  1
  H  H2090  1  0.74355525  0.72393571  0.60891910  1
  H  H2091  1  0.59247199  0.50558482  0.60010850  1
  C  C2092  1  0.52988903  0.50164630  0.63340969  1
  H  H2093  1  0.62017393  0.51896395  0.69758613  1
  H  H2094  1  0.73697950  0.59712653  0.63633616  1
  C  C2095  1  0.63006223  0.51112272  0.66683401  1
  H  H2096  1  0.51227728  0.54474098  0.54700585  1
  H  H2097  1  0.62299672  0.52290993  0.55368175  1
  H  H2098  1  0.51017848  0.61760159  0.64678447  1
  H  H2099  1  0.74590395  0.95667049  0.71552304  1
  C  C2100  1  0.50051806  0.56188581  0.51909448  1
  C  C2101  1  0.75170918  0.69169192  0.54803058  1
  H  H2102  1  0.89315795  0.70950975  0.62217003  1
  C  C2103  1  0.87630599  0.76936950  0.51685125  1
  C  C2104  1  0.97882452  0.94682288  0.63553381  1
  C  C2105  1  0.92634851  0.51668614  0.72763110  1
  H  H2106  1  0.94262523  0.78223948  0.57257151  1
  C  C2107  1  0.91880868  0.96310585  0.68501492  1
  C  C2108  1  0.95791323  0.88265181  0.50085459  1
  C  C2109  1  0.99507066  0.96563823  0.70247118  1
  C  C2110  1  0.85302265  0.75148037  0.72425477  1
  C  C2111  1  0.90281249  0.92155206  0.58174754  1
  C  C2112  1  0.81909557  0.78980769  0.66324268  1
  C  C2113  1  0.89649324  0.94999167  0.61706309  1
  H  H2114  1  0.82487890  0.81000013  0.63574782  1
  N  N2115  1  0.90584471  0.80871357  0.50003029  1
  H  H2116  1  0.77290509  0.67720848  0.66827043  1
  C  C2117  1  0.99356347  0.77063127  0.64969899  1
  C  C2118  1  0.91699375  0.73760812  0.63779529  1
  H  H2119  1  0.88291842  0.74126183  0.74254558  1
  C  C2120  1  0.90288643  0.77066981  0.66894009  1
  O  O2121  1  0.78759909  0.87677593  0.52131179  1
  C  C2122  1  0.85646331  0.77207546  0.68592787  1
  C  C2123  1  0.82472529  0.93024035  0.57071861  1
  C  C2124  1  0.77705003  0.78655180  0.67968044  1
  C  C2125  1  0.93928172  0.83449763  0.51958474  1
  C  C2126  1  0.79663125  0.71142813  0.53931937  1
  C  C2127  1  0.85384932  0.97563528  0.62621323  1
  C  C2128  1  0.93333924  0.95408695  0.64599797  1
  H  H2129  1  0.98972265  0.93306280  0.60642368  1
  C  C2130  1  0.99445456  0.84373067  0.57140637  1
  H  H2131  1  0.76177563  0.59994181  0.73831508  1
  C  C2132  1  0.97799894  0.81097611  0.67679044  1
  C  C2133  1  0.77084886  0.75856374  0.71522875  1
  H  H2134  1  0.82874492  0.96648253  0.72917153  1
  H  H2135  1  0.92076328  0.83181291  0.71222537  1
  C  C2136  1  0.78324255  0.91511887  0.54533918  1
  C  C2137  1  0.76448531  0.99408717  0.70705104  1
  H  H2138  1  0.97676183  0.71092746  0.60570582  1
  C  C2139  1  0.81716867  0.96509699  0.60288532  1
  H  H2140  1  0.88327528  0.96934685  0.69101425  1
  H  H2141  1  0.93865997  0.97165012  0.74287784  1
  C  C2142  1  0.86500832  0.90919489  0.56048281  1
  C  C2143  1  0.93364461  0.80998868  0.68807845  1
  C  C2144  1  0.82150232  0.74473571  0.56616656  1
  C  C2145  1  0.80896768  0.74663041  0.73793899  1
  H  H2146  1  0.86816081  0.88882548  0.53337744  1
  O  O2147  1  0.89598448  0.51813980  0.70558532  1
  H  H2148  1  0.93422139  0.90542913  0.57481007  1
  H  H2149  1  0.87830425  0.79489935  0.57456254  1
  C  C2150  1  0.96244504  0.73813356  0.62831308  1
  C  C2151  1  0.94982434  0.96825402  0.71434065  1
  H  H2152  1  0.78400748  0.98064831  0.60976707  1
  C  C2153  1  0.81492192  0.70042889  0.50204785  1
  H  H2154  1  0.80975773  0.74810012  0.59610424  1
  C  C2155  1  0.95780243  0.81512025  0.55594263  1
  C  C2156  1  0.86062687  0.77101614  0.55476870  1
  C  C2157  1  0.99431626  0.90761269  0.51762012  1
  H  H2158  1  0.95994993  0.89449694  0.74958665  1
  C  C2159  1  0.86114615  0.89002031  0.74631888  1
  C  C2160  1  0.58649217  0.82905626  0.96658599  1
  N  N2161  1  0.59214595  0.82297541  0.89874895  1
  C  C2162  1  0.61290160  0.83771299  0.93365689  1
  C  C2163  1  0.59638227  0.85335261  0.86571736  1
  C  C2164  1  0.67293086  0.87595042  0.97091992  1
  C  C2165  1  0.65659862  0.86169446  0.93554746  1
  H  H2166  1  0.67476973  0.86872877  0.90670820  1
  C  C2167  1  0.60952701  0.91096864  0.87186463  1
  H  H2168  1  0.61832382  0.92123895  0.90148116  1
  C  C2169  1  0.58276602  0.92974132  0.80679742  1
  C  C2170  1  0.60186994  0.94761106  0.84212010  1
  C  C2171  1  0.58618441  0.83232064  0.82797388  1
  C  C2172  1  0.61933444  0.56989901  0.80484561  1
  C  C2173  1  0.63022353  0.57908167  0.84471285  1
  C  C2174  1  0.61366646  0.62445750  0.86709626  1
  C  C2175  1  0.58701491  0.60484496  0.79035626  1
  C  C2176  1  0.57254731  0.65018587  0.81205762  1
  C  C2177  1  0.58547746  0.66374733  0.84957895  1
  H  H2178  1  0.57409599  0.70018771  0.86644869  1
  H  H2179  1  0.61737854  0.62412080  0.89612868  1
  H  H2180  1  0.58350245  0.78496867  0.82145744  1
  O  O2181  1  0.57747814  0.55207042  0.94301339  1
  H  H2182  1  0.60114143  0.73696691  0.95085374  1
  H  H2183  1  0.68300083  0.77175456  0.89842465  1
  C  C2184  1  0.56443938  0.77441548  0.90251699  1
  C  C2185  1  0.57357546  0.73200538  0.92987546  1
  C  C2186  1  0.58067216  0.86891476  0.79901909  1
  C  C2187  1  0.53332771  0.55295788  0.86678668  1
  C  C2188  1  0.53954414  0.68623802  0.78887893  1
  H  H2189  1  0.55253069  0.81335296  0.96173334  1
  H  H2190  1  0.57393467  0.85269980  0.77086477  1
  C  C2191  1  0.71246462  0.73308431  0.94882313  1
  C  C2192  1  0.70400998  0.73954220  0.91007827  1
  C  C2193  1  0.54449531  0.68430970  0.93152975  1
  C  C2194  1  0.71464309  0.70769760  0.84088806  1
  H  H2195  1  0.69970062  0.76203863  0.96858910  1
  H  H2196  1  0.68488313  0.62346530  0.83127281  1
  C  C2197  1  0.69895612  0.66095815  0.81733449  1
  H  H2198  1  0.53587463  0.89517042  0.91671243  1
  H  H2199  1  0.54752953  0.59274992  0.87405927  1
  C  C2200  1  0.68164804  0.52355528  0.88746530  1
  H  H2201  1  0.70463749  0.89646722  0.97229665  1
  H  H2202  1  0.69811787  0.56169723  0.89812468  1
  C  C2203  1  0.72342313  0.70116190  0.88337487  1
  H  H2204  1  0.63219454  0.53258241  0.79055618  1
  C  C2205  1  0.64158833  0.52432605  0.86407542  1
  H  H2206  1  0.73464798  0.93484842  0.79629224  1
  C  C2207  1  0.70530394  0.66961000  0.77939581  1
  C  C2208  1  0.52609603  0.77068685  0.87782669  1
  C  C2209  1  0.51485166  0.54851084  0.83061762  1
  H  H2210  1  0.55171239  0.64552419  0.94756889  1
  Cu  Cu2211  1  0.53575460  0.95120091  0.97862752  1
  Cu  Cu2212  1  0.60839536  0.56857167  0.98794123  1
  C  C2213  1  0.73402691  0.76852180  0.78833095  1
  C  C2214  1  0.72455335  0.97856562  0.78926970  1
  C  C2215  1  0.68693145  0.98716099  0.76411830  1
  C  C2216  1  0.55786355  0.97016361  0.78274409  1
  O  O2217  1  0.52226768  0.72383740  0.80477237  1
  C  C2218  1  0.52527042  0.97578051  0.89041579  1
  C  C2219  1  0.51787230  0.91907946  0.89584008  1
  H  H2220  1  0.52251829  0.80058822  0.85416656  1
  O  O2221  1  0.57612072  0.97254507  0.93908819  1
  H  H2222  1  0.51859059  0.58390362  0.81019863  1
  C  C2223  1  0.72798897  0.76321157  0.82712159  1
  H  H2224  1  0.69749029  0.86839616  0.77719847  1
  C  C2225  1  0.72929951  0.51023697  0.81007422  1
  C  C2226  1  0.74118517  0.69156327  0.96039602  1
  C  C2227  1  0.51797671  0.95475497  0.76290961  1
  H  H2228  1  0.60293867  0.99388216  0.84991907  1
  C  C2229  1  0.56204500  0.50742000  0.92743371  1
  C  C2230  1  0.50479307  0.68313856  0.90987215  1
  H  H2231  1  0.50371587  0.91123103  0.76337287  1
  H  H2232  1  0.55397986  0.68299789  0.99723472  1
  H  H2233  1  0.73752701  0.50410841  0.84026450  1
  C  C2234  1  0.53907190  0.50474650  0.89079328  1
  C  C2235  1  0.72163456  0.72223445  0.76323227  1
  H  H2236  1  0.57429396  0.59846682  0.76095468  1
  C  C2237  1  0.74527807  0.56539238  0.75262048  1
  H  H2238  1  0.74209251  0.79497019  0.84578175  1
  H  H2239  1  0.65718192  0.79200759  0.75087215  1
  H  H2240  1  0.69191300  0.63812723  0.75864641  1
  O  O2241  1  0.53286264  0.67065386  0.75440091  1
  C  C2242  1  0.66981684  0.87921858  0.75932406  1
  C  C2243  1  0.66126550  0.93736785  0.75027812  1
  O  O2244  1  0.75578138  0.88819475  0.87962737  1
  C  C2245  1  0.98309694  0.66683702  0.84898614  1
  C  C2246  1  0.75642016  0.66049281  0.89491773  1
  C  C2247  1  0.99147034  0.90302841  0.94912892  1
  H  H2248  1  0.79320769  0.63217130  0.94254884  1
  C  C2249  1  0.79617991  0.56491998  0.81201820  1
  H  H2250  1  0.75007550  0.80681493  0.77899545  1
  C  C2251  1  0.99684858  0.91868964  0.91115049  1
  H  H2252  1  0.98738530  0.65732622  0.81830199  1
  O  O2253  1  0.82496221  0.59810273  0.79917599  1
  Cu  Cu2254  1  0.87640986  0.56717585  0.78479804  1
  C  C2255  1  0.99782022  0.91018020  0.84082312  1
  C  C2256  1  0.91739359  0.60664977  0.85079992  1
  C  C2257  1  0.77191678  0.89839056  0.85379725  1
  C  C2258  1  0.96673486  0.83357194  0.88929500  1
  O  O2259  1  0.92062055  0.60312691  0.81512460  1
  C  C2260  1  0.94901001  0.64185810  0.87058575  1
  C  C2261  1  0.97155763  0.88711127  0.81031323  1
  H  H2262  1  0.91449791  0.62864278  0.92413857  1
  O  O2263  1  0.86850873  0.86050436  0.76813261  1
  C  C2264  1  0.97054151  0.85195577  0.95631012  1
  O  O2265  1  0.76254238  0.50544518  0.96682980  1
  C  C2266  1  0.98474709  0.88721843  0.87947958  1
  Cu  Cu2267  1  0.86190537  0.50988043  0.84967833  1
  C  C2268  1  0.76498740  0.65726679  0.93317633  1
  O  O2269  1  0.92309716  0.53154057  0.76333180  1
  H  H2270  1  0.77221923  0.63353672  0.87218749  1
  H  H2271  1  0.89746063  0.93246356  0.94769789  1
  O  O2272  1  0.80278674  0.54284508  0.84476514  1
  H  H2273  1  0.96870885  0.67869609  0.96013458  1
  O  O2274  1  0.88963890  0.57558187  0.86939478  1
  C  C2275  1  0.97966092  0.90736830  0.77434645  1
  C  C2276  1  0.95832829  0.83028177  0.99527871  1
  C  C2277  1  0.94299739  0.65117269  0.91043359  1
  C  C2278  1  0.75722192  0.54797904  0.79027816  1
  C  C2279  1  0.97400381  0.68163209  0.92916404  1
  C  C2280  1  0.91260321  0.96621966  0.93146411  1
  H  H2281  1  0.94707610  0.85455542  0.81584928  1
  H  H2282  1  0.89178421  0.93474715  0.87549574  1
  H  H2283  1  0.94480544  0.77470599  0.93041100  1
  H  H2284  1  0.95740473  0.80512788  0.86659145  1
  C  C2285  1  0.95801322  0.81826094  0.92584428  1
  C  C2286  1  0.90770400  0.97012096  0.89174521  1
  H  H2287  1  0.80424058  0.73288705  0.76747322  1
