# generated using pymatgen
data_Cu17H144C168(N30Cl)2
_symmetry_space_group_name_H-M   'P 1'
_cell_length_a   23.24902047
_cell_length_b   36.67474658
_cell_length_c   17.40755793
_cell_angle_alpha   90.00000000
_cell_angle_beta   90.00000000
_cell_angle_gamma   90.00000000
_symmetry_Int_Tables_number   1
_chemical_formula_structural   Cu17H144C168(N30Cl)2
_chemical_formula_sum   'Cu68 H576 C672 N240 Cl8'
_cell_volume   14842.58793795
_cell_formula_units_Z   4
loop_
 _symmetry_equiv_pos_site_id
 _symmetry_equiv_pos_as_xyz
  1  'x, y, z'
loop_
 _atom_site_type_symbol
 _atom_site_label
 _atom_site_symmetry_multiplicity
 _atom_site_fract_x
 _atom_site_fract_y
 _atom_site_fract_z
 _atom_site_occupancy
  N  N0  1  0.22413272  0.16762387  0.39492273  1
  H  H1  1  0.45369100  0.02293065  0.24619672  1
  H  H2  1  0.19521582  0.00985462  0.47509018  1
  C  C3  1  0.26756470  0.06986856  0.08617774  1
  H  H4  1  0.46813034  0.07774283  0.12449508  1
  C  C5  1  0.02346532  0.12441372  0.37624331  1
  C  C6  1  0.06918977  0.09922988  0.38014905  1
  C  C7  1  0.05184877  0.03364755  0.11884169  1
  H  H8  1  0.15681309  0.09320544  0.42065081  1
  C  C9  1  0.32590556  0.23795906  0.33216969  1
  C  C10  1  0.48653397  0.00120265  0.46832143  1
  H  H11  1  0.06481244  0.01123698  0.25754355  1
  C  C12  1  0.05918489  0.02346059  0.48360302  1
  H  H13  1  0.32367919  0.05945645  0.33373630  1
  H  H14  1  0.37313957  0.24520750  0.43853843  1
  C  C15  1  0.12139470  0.11190129  0.41023852  1
  N  N16  1  0.14546184  0.15677515  0.10596635  1
  N  N17  1  0.40621079  0.17658179  0.45162773  1
  H  H18  1  0.44325922  0.19150271  0.46514555  1
  C  C19  1  0.08441083  0.17434432  0.42062135  1
  N  N20  1  0.28247584  0.05894422  0.35513409  1
  C  C21  1  0.36895569  0.22907401  0.38472104  1
  C  C22  1  0.27021699  0.23061524  0.21254737  1
  H  H23  1  0.49401702  0.15849173  0.08659132  1
  Cu  Cu24  1  0.18267660  0.22533895  0.01602245  1
  C  C25  1  0.19265117  0.16089173  0.45409111  1
  C  C26  1  0.12828613  0.14862829  0.43210693  1
  C  C27  1  0.38721200  0.17202819  0.30883124  1
  C  C28  1  0.30796948  0.06936779  0.02314256  1
  H  H29  1  0.42805887  0.24302825  0.06263388  1
  N  N30  1  0.36480956  0.05727307  0.03887392  1
  C  C31  1  0.22187247  0.03774921  0.24997505  1
  H  H32  1  0.36503010  0.03392418  0.07114327  1
  C  C33  1  0.11582850  0.01840582  0.35803982  1
  Cu  Cu34  1  0.26579226  0.11175054  0.35151292  1
  Cu  Cu35  1  0.08980349  0.19142746  0.06851419  1
  C  C36  1  0.00825810  0.02103926  0.44507802  1
  H  H37  1  0.40862195  0.14635587  0.30239766  1
  Cu  Cu38  1  0.15390246  0.19045338  0.19076524  1
  C  C39  1  0.11235014  0.02665880  0.43944870  1
  N  N40  1  0.38423955  0.24049831  0.05906292  1
  Cu  Cu41  1  0.17893602  0.15631865  0.31002107  1
  N  N42  1  0.42611973  0.07987070  0.27641664  1
  H  H43  1  0.14725750  0.14481791  0.05252711  1
  H  H44  1  0.42158797  0.15112347  0.44544211  1
  C  C45  1  0.02914797  0.16123373  0.39642003  1
  H  H46  1  0.16735679  0.02039637  0.15691821  1
  H  H47  1  0.09082637  0.20256265  0.44283695  1
  C  C48  1  0.19075462  0.01081361  0.20936302  1
  C  C49  1  0.35120987  0.18438666  0.25116157  1
  N  N50  1  0.26589870  0.21627857  0.14068974  1
  H  H51  1  0.28790241  0.04675993  0.40878765  1
  H  H52  1  0.12492784  0.13375741  0.12744385  1
  Cu  Cu53  1  0.30309210  0.17516127  0.40862616  1
  H  H54  1  0.33956300  0.16420050  0.20325660  1
  H  H55  1  0.15726612  0.01897792  0.32697685  1
  Cu  Cu56  1  0.30934221  0.19507707  0.06148129  1
  H  H57  1  0.28360560  0.06278846  0.14602105  1
  C  C58  1  0.45040567  0.09072005  0.39369324  1
  H  H59  1  0.18229003  0.08034392  0.12356377  1
  H  H60  1  0.29647095  0.00850966  0.18043516  1
  N  N61  1  0.22901120  0.13780220  0.22724580  1
  N  N62  1  0.40487056  0.08000396  0.34749049  1
  Cu  Cu63  1  0.23058108  0.15321370  0.11726302  1
  N  N64  1  0.26864968  0.11870664  0.24922469  1
  H  H65  1  0.22381704  0.06674262  0.23159173  1
  C  C66  1  0.39620684  0.19476996  0.37605685  1
  C  C67  1  0.21138118  0.07907224  0.07537141  1
  H  H68  1  0.06644164  0.06942214  0.36755951  1
  N  N69  1  0.02968315  0.22348866  0.02508457  1
  C  C70  1  0.25174624  0.02740403  0.31631161  1
  C  C71  1  0.31726193  0.21587457  0.26651888  1
  C  C72  1  0.45182380  0.09785395  0.47856941  1
  C  C73  1  0.06511208  0.01380947  0.31941117  1
  H  H74  1  0.04080060  0.06027888  0.09818243  1
  H  H75  1  0.49056690  0.03509332  0.36477890  1
  N  N76  1  0.08845988  0.09866871  0.03484977  1
  N  N77  1  0.16412856  0.02949357  0.48140754  1
  C  C78  1  0.47881224  0.00861334  0.38973871  1
  C  C79  1  0.48365445  0.09091890  0.28242633  1
  H  H80  1  0.49293084  0.15733952  0.27902887  1
  C  C81  1  0.06196688  0.00371440  0.14070300  1
  N  N82  1  0.21230887  0.24459147  0.10658057  1
  C  C83  1  0.01195096  0.01549632  0.36378225  1
  N  N84  1  0.49822163  0.09804926  0.35557405  1
  C  C85  1  0.48285625  0.15591870  0.02583596  1
  H  H86  1  0.42885002  0.10796197  0.03902317  1
  H  H87  1  0.36446882  0.07383771  0.48590034  1
  N  N88  1  0.24883097  0.16684316  0.01040387  1
  C  C89  1  0.27801372  0.01701213  0.87178791  1
  H  H90  1  0.14257442  0.10188764  0.63829046  1
  N  N91  1  0.04381054  0.11354404  0.99986744  1
  Cl  Cl92  1  0.03538853  0.24575152  0.80990369  1
  N  N93  1  0.45939106  0.02034779  0.93563934  1
  C  C94  1  0.08876953  0.00921647  0.82441224  1
  H  H95  1  0.27234076  0.14500904  0.99294311  1
  Cu  Cu96  1  0.37069511  0.18002118  0.55414465  1
  C  C97  1  0.01551008  0.05415238  0.65777955  1
  C  C98  1  0.31492297  0.04020436  0.74565567  1
  H  H99  1  0.34912213  0.16137449  0.88231765  1
  N  N100  1  0.30625155  0.15880419  0.87333542  1
  H  H101  1  0.32220233  0.07512169  0.90289267  1
  C  C102  1  0.05766176  0.07780812  0.62562669  1
  H  H103  1  0.19429789  0.00702757  0.79937949  1
  C  C104  1  0.39119120  0.10690393  0.58574880  1
  C  C105  1  0.37018904  0.03544994  0.77529924  1
  C  C106  1  0.26939365  0.12879039  0.66987289  1
  H  H107  1  0.01075883  0.06832037  0.94123445  1
  H  H108  1  0.45031354  0.15009393  0.80064541  1
  C  C109  1  0.48310785  0.14205669  0.57435926  1
  H  H110  1  0.44341640  0.18072877  0.69163238  1
  N  N111  1  0.42078782  0.15870026  0.67397001  1
  C  C112  1  0.06061000  0.12066632  0.92378177  1
  H  H113  1  0.30011970  0.13360233  0.89979265  1
  C  C114  1  0.33615706  0.01131820  0.89538871  1
  H  H115  1  0.07383428  0.17883481  0.58854152  1
  H  H116  1  0.30958323  0.04468854  0.68370140  1
  C  C117  1  0.23148499  0.08725596  0.93332775  1
  H  H118  1  0.21154100  0.09402477  0.87594331  1
  C  C119  1  0.43333489  0.12727264  0.91816676  1
  H  H120  1  0.31313896  0.22044413  0.78659094  1
  H  H121  1  0.28392000  0.22327837  0.63752036  1
  C  C122  1  0.38210756  0.01778708  0.84692087  1
  N  N123  1  0.40154785  0.09881802  0.88627468  1
  H  H124  1  0.41968843  0.23423600  0.55997316  1
  H  H125  1  0.43448291  0.03719235  0.62515134  1
  H  H126  1  0.29700770  0.10379290  0.77880576  1
  C  C127  1  0.08543412  0.03552655  0.75830579  1
  C  C128  1  0.02851159  0.03463885  0.72430813  1
  H  H129  1  0.16706263  0.06569709  0.74847830  1
  C  C130  1  0.30263325  0.19689531  0.75202259  1
  C  C131  1  0.12611090  0.06065391  0.72550320  1
  C  C132  1  0.13339648  0.09834620  0.98018049  1
  H  H133  1  0.40525592  0.04671014  0.73990273  1
  Cu  Cu134  1  0.06626264  0.20061488  0.88821975  1
  N  N135  1  0.11496199  0.11158443  0.91054045  1
  C  C136  1  0.26990235  0.02623937  0.79372641  1
  C  C137  1  0.28887731  0.07757619  0.94668438  1
  C  C138  1  0.26734384  0.16366151  0.63938019  1
  C  C139  1  0.45779482  0.15202801  0.86254517  1
  C  C140  1  0.44728192  0.12788387  0.99873794  1
  H  H141  1  0.20036180  0.01584778  0.71123784  1
  C  C142  1  0.44806012  0.00879564  0.86100139  1
  N  N143  1  0.18296699  0.20435330  0.86861967  1
  N  N144  1  0.22365927  0.00485144  0.75321104  1
  C  C145  1  0.43031685  0.13389702  0.61522284  1
  C  C146  1  0.29059857  0.12995291  0.74567991  1
  H  H147  1  0.35131228  0.10099734  0.62303439  1
  C  C148  1  0.30327857  0.16173050  0.78757463  1
  C  C149  1  0.04202857  0.19969583  0.58141379  1
  C  C150  1  0.19293868  0.08620556  0.99647377  1
  H  H151  1  0.06863841  0.10932927  0.77036217  1
  H  H152  1  0.20876575  0.15810687  0.99611639  1
  C  C153  1  0.11178116  0.08241912  0.66200538  1
  Cu  Cu154  1  0.26250208  0.19852872  0.92437172  1
  H  H155  1  0.05627370  0.02606899  0.54651697  1
  C  C156  1  0.28560896  0.19747604  0.67377386  1
  H  H157  1  0.04950970  0.09001969  0.51515981  1
  C  C158  1  0.05458916  0.23609660  0.55899580  1
  H  H159  1  0.38002322  0.23451728  0.63830572  1
  C  C160  1  0.03230732  0.12575948  0.78103623  1
  H  H161  1  0.41512031  0.07271260  0.90284769  1
  N  N162  1  0.19767702  0.15919126  0.52996806  1
  H  H163  1  0.18599087  0.21677694  0.66679706  1
  H  H164  1  0.26387491  0.10404419  0.63660569  1
  N  N165  1  0.46899008  0.02664320  0.65589526  1
  H  H166  1  0.03967817  0.12742460  0.56822730  1
  N  N167  1  0.14609037  0.21216466  0.91682703  1
  H  H168  1  0.39380710  0.09479383  0.82887608  1
  H  H169  1  0.23944293  0.01266381  0.90633833  1
  N  N170  1  0.37742219  0.23333274  0.58033098  1
  H  H171  1  0.20223272  0.23443387  0.74110468  1
  H  H172  1  0.38182690  0.15972088  0.69942865  1
  C  C173  1  0.25249756  0.16541559  0.55000852  1
  C  C174  1  0.02696753  0.13891505  0.86036089  1
  N  N175  1  0.16444808  0.22948665  0.71037831  1
  Cu  Cu176  1  0.14342411  0.19018074  0.78020580  1
  C  C177  1  0.49838682  0.18265234  0.96940482  1
  H  H178  1  0.15384937  0.02641628  0.53954022  1
  H  H179  1  0.14750361  0.22840432  0.53261655  1
  N  N180  1  0.03028254  0.09950849  0.56624228  1
  Cu  Cu181  1  0.08057315  0.24036594  0.69053377  1
  N  N182  1  0.13074382  0.00872106  0.88386513  1
  H  H183  1  0.39344525  0.05534349  0.99585429  1
  C  C184  1  0.10852420  0.24633971  0.53305982  1
  C  C185  1  0.49246564  0.17988040  0.88827716  1
  C  C186  1  0.39795643  0.08920633  0.51623033  1
  H  H187  1  0.01874056  0.02565253  0.94018401  1
  H  H188  1  0.48931198  0.01071463  0.61567270  1
  C  C189  1  0.49460895  0.12186533  0.50971000  1
  H  H190  1  0.26598045  0.23463571  0.50712952  1
  H  H191  1  0.44542183  0.24931184  0.92928330  1
  H  H192  1  0.49266640  0.05660195  0.80080266  1
  N  N193  1  0.29943867  0.17180733  0.51333426  1
  C  C194  1  0.36092916  0.24917441  0.98613362  1
  C  C195  1  0.16192461  0.29797978  0.16762916  1
  C  C196  1  0.20412023  0.26674432  0.16757348  1
  C  C197  1  0.25022293  0.45646910  0.38718645  1
  H  H198  1  0.09681854  0.35557232  0.29570427  1
  H  H199  1  0.25856678  0.44049312  0.03206038  1
  H  H200  1  0.37403730  0.25414597  0.10907597  1
  H  H201  1  0.09686081  0.41658040  0.14070495  1
  C  C202  1  0.00037301  0.36202190  0.02379860  1
  C  C203  1  0.45558404  0.38798041  0.13878159  1
  H  H204  1  0.30122017  0.26244102  0.33925131  1
  H  H205  1  0.01722439  0.33189987  0.37096336  1
  C  C206  1  0.14177175  0.49906483  0.10857743  1
  C  C207  1  0.29513800  0.34784074  0.03909313  1
  Cu  Cu208  1  0.37213711  0.36314282  0.24006724  1
  C  C209  1  0.48623199  0.37596657  0.20494051  1
  C  C210  1  0.14595393  0.31077117  0.24258124  1
  N  N211  1  0.35329965  0.47285622  0.15813734  1
  H  H212  1  0.39538866  0.48163032  0.15141052  1
  C  C213  1  0.02709858  0.27339280  0.22467550  1
  N  N214  1  0.45924834  0.38104138  0.40441128  1
  H  H215  1  0.04746857  0.42688554  0.05695186  1
  H  H216  1  0.06773256  0.49926413  0.36310969  1
  H  H217  1  0.45731789  0.26247572  0.23842125  1
  C  C218  1  0.28461543  0.28455860  0.44656051  1
  H  H219  1  0.39233348  0.36821413  0.05116064  1
  H  H220  1  0.10648171  0.36637228  0.04931266  1
  H  H221  1  0.25245631  0.27962291  0.40332308  1
  C  C222  1  0.15270191  0.47497676  0.35302735  1
  H  H223  1  0.06279296  0.46227708  0.00860735  1
  H  H224  1  0.12124170  0.25299044  0.37237304  1
  H  H225  1  0.19810365  0.39024010  0.11691567  1
  Cu  Cu226  1  0.33994440  0.45371293  0.28298055  1
  C  C227  1  0.20670023  0.48231260  0.38918857  1
  H  H228  1  0.17824588  0.39056113  0.28070989  1
  C  C229  1  0.11517546  0.34381111  0.24433997  1
  N  N230  1  0.07434836  0.39520026  0.16020986  1
  C  C231  1  0.00719972  0.48271704  0.18007097  1
  Cu  Cu232  1  0.25020758  0.42154972  0.21052276  1
  H  H233  1  0.10181578  0.43632251  0.28689649  1
  Cu  Cu234  1  0.40881979  0.29884236  0.34648620  1
  C  C235  1  0.41220605  0.32641331  0.13448725  1
  N  N236  1  0.09084097  0.27334231  0.36474210  1
  C  C237  1  0.31669338  0.34283502  0.37486547  1
  H  H238  1  0.16251508  0.29703460  0.29527029  1
  C  C239  1  0.14390537  0.44004975  0.31467688  1
  H  H240  1  0.38943781  0.27128270  0.22148738  1
  N  N241  1  0.27705531  0.36850487  0.38129654  1
  N  N242  1  0.31876945  0.40216203  0.25927939  1
  N  N243  1  0.48217043  0.28132639  0.46030223  1
  N  N244  1  0.35937569  0.33633671  0.32938947  1
  C  C245  1  0.18886076  0.41682430  0.30801308  1
  H  H246  1  0.07237713  0.26884911  0.20270581  1
  N  N247  1  0.24064557  0.38379840  0.13392587  1
  C  C248  1  0.44391011  0.31691540  0.19936095  1
  C  C249  1  0.48415455  0.34088953  0.23596155  1
  C  C250  1  0.07928992  0.29299168  0.42814134  1
  C  C251  1  0.14513198  0.31504095  0.09557548  1
  Cu  Cu252  1  0.46382468  0.33361208  0.43339906  1
  H  H253  1  0.33884810  0.47475098  0.10146360  1
  H  H254  1  0.23341377  0.35825830  0.16197730  1
  C  C255  1  0.31692096  0.31621037  0.44530683  1
  H  H256  1  0.03771229  0.46159710  0.15888119  1
  H  H257  1  0.27645030  0.26250732  0.03333297  1
  C  C258  1  0.28116451  0.41466444  0.01857453  1
  C  C259  1  0.47180217  0.49312731  0.32195812  1
  C  C260  1  0.10369783  0.36217431  0.17389341  1
  N  N261  1  0.16239871  0.44403532  0.07634765  1
  C  C262  1  0.03764912  0.32057186  0.42382243  1
  C  C263  1  0.41819358  0.36168754  0.10422786  1
  H  H264  1  0.15612127  0.30190421  0.03933259  1
  C  C265  1  0.27187380  0.38180127  0.05995826  1
  C  C266  1  0.11810786  0.34807506  0.09915787  1
  Cu  Cu267  1  0.38479694  0.39544239  0.37548623  1
  N  N268  1  0.15234336  0.46360765  0.13825770  1
  C  C269  1  0.24345739  0.42444512  0.34330321  1
  C  C270  1  0.46125346  0.42396970  0.09652367  1
  C  C271  1  0.28472108  0.39240480  0.32731508  1
  H  H272  1  0.05387825  0.40531804  0.20875037  1
  Cu  Cu273  1  0.34543054  0.41914199  0.15134454  1
  H  H274  1  0.28522397  0.32261513  0.07007419  1
  C  C275  1  0.46105897  0.45299939  0.34458257  1
  N  N276  1  0.40939002  0.43888906  0.33350940  1
  H  H277  1  0.38877658  0.30630851  0.09869989  1
  H  H278  1  0.28889971  0.46209311  0.42177844  1
  N  N279  1  0.42777890  0.28290146  0.23982191  1
  H  H280  1  0.25009341  0.41328681  0.47778193  1
  H  H281  1  0.07001712  0.27324656  0.31078749  1
  H  H282  1  0.01132017  0.37598666  0.07651390  1
  N  N283  1  0.23391630  0.25772336  0.23243879  1
  N  N284  1  0.42436038  0.43786144  0.04169330  1
  H  H285  1  0.39174324  0.45497235  0.46501163  1
  N  N286  1  0.04008450  0.43768949  0.00563349  1
  H  H287  1  0.00558427  0.46184504  0.30141930  1
  N  N288  1  0.45083358  0.46679625  0.01124630  1
  N  N289  1  0.49189752  0.26040052  0.39668142  1
  H  H290  1  0.00831206  0.49687556  0.02605672  1
  H  H291  1  0.23382453  0.48561734  0.15529534  1
  N  N292  1  0.35036653  0.45496344  0.48415336  1
  C  C293  1  0.15852080  0.46598607  0.01139067  1
  H  H294  1  0.04800669  0.44011778  0.47796495  1
  C  C295  1  0.39984186  0.25358949  0.92349267  1
  C  C296  1  0.18786810  0.41575862  0.91208232  1
  C  C297  1  0.29732786  0.48960342  0.76693538  1
  C  C298  1  0.32160851  0.41434801  0.95820459  1
  H  H299  1  0.39939666  0.30696772  0.60750355  1
  C  C300  1  0.46562567  0.43116268  0.72610191  1
  H  H301  1  0.18225207  0.33109482  0.93280518  1
  C  C302  1  0.44474202  0.40734022  0.78997755  1
  Cu  Cu303  1  0.11763065  0.27775971  0.84782314  1
  C  C304  1  0.37751124  0.41347231  0.58400864  1
  Cu  Cu305  1  0.07172399  0.26254692  0.98450197  1
  C  C306  1  0.39259189  0.38317356  0.87907082  1
  N  N307  1  0.24405000  0.32014316  0.69103278  1
  H  H308  1  0.07431077  0.45739051  0.86874802  1
  N  N309  1  0.09586327  0.29270226  0.68504229  1
  C  C310  1  0.17191831  0.45205206  0.93359659  1
  H  H311  1  0.03419585  0.32444514  0.90092787  1
  C  C312  1  0.07326250  0.34248747  0.75151604  1
  C  C313  1  0.29254929  0.25938019  0.50810443  1
  C  C314  1  0.03778077  0.35364150  0.88935970  1
  H  H315  1  0.13720470  0.33888914  0.86520763  1
  H  H316  1  0.27244732  0.45358275  0.86375516  1
  H  H317  1  0.24663992  0.48732479  0.97637286  1
  C  C318  1  0.34226243  0.26439359  0.55475392  1
  N  N319  1  0.46595267  0.37260320  0.80671979  1
  H  H320  1  0.41227644  0.27269275  0.80812957  1
  H  H321  1  0.35171727  0.31875949  0.94855047  1
  C  C322  1  0.06803300  0.31578067  0.55225903  1
  H  H323  1  0.47968986  0.32270885  0.57193371  1
  C  C324  1  0.07261768  0.32152515  0.63320136  1
  H  H325  1  0.19511907  0.31849889  0.84294071  1
  C  C326  1  0.26805894  0.37652259  0.57297727  1
  H  H327  1  0.39410088  0.47221998  0.75042301  1
  C  C328  1  0.06375053  0.42884868  0.87340895  1
  H  H329  1  0.02261488  0.39899039  0.54876767  1
  C  C330  1  0.05784495  0.36817553  0.81931305  1
  C  C331  1  0.36578072  0.38427100  0.63123624  1
  C  C332  1  0.33005510  0.34453921  0.97406092  1
  C  C333  1  0.29738084  0.33671643  0.68681060  1
  C  C334  1  0.28311608  0.27321435  0.90969750  1
  C  C335  1  0.07039806  0.40639579  0.80958698  1
  N  N336  1  0.39671896  0.41376382  0.83294123  1
  Cu  Cu337  1  0.17065404  0.27806298  0.66761051  1
  C  C338  1  0.19767022  0.40424720  0.83820528  1
  C  C339  1  0.49859862  0.30639418  0.61975238  1
  C  C340  1  0.19097216  0.43036902  0.77641738  1
  N  N341  1  0.09054588  0.30936416  0.76674952  1
  C  C342  1  0.17931134  0.46852198  0.79560276  1
  H  H343  1  0.20991251  0.37539349  0.82603603  1
  N  N344  1  0.43218984  0.35761379  0.86150657  1
  N  N345  1  0.24435347  0.29596793  0.74938214  1
  N  N346  1  0.05704926  0.35098103  0.67720013  1
  C  C347  1  0.43139913  0.46293997  0.71084127  1
  H  H348  1  0.49948042  0.32673570  0.84054502  1
  H  H349  1  0.23860316  0.46820683  0.57109869  1
  C  C350  1  0.15885924  0.49116725  0.56276950  1
  C  C351  1  0.33389977  0.42426963  0.52740412  1
  H  H352  1  0.20426790  0.43030126  0.65718471  1
  N  N353  1  0.33335563  0.32085884  0.73709668  1
  H  H354  1  0.27280207  0.47483189  0.72181473  1
  H  H355  1  0.17638719  0.48964155  0.74994564  1
  C  C356  1  0.37973071  0.26685977  0.85327026  1
  H  H357  1  0.22558108  0.36263710  0.57059970  1
  C  C358  1  0.32139814  0.27508488  0.84421170  1
  N  N359  1  0.18890689  0.41648201  0.70172323  1
  H  H360  1  0.01621905  0.25422406  0.55871118  1
  C  C361  1  0.44670806  0.48366300  0.64544588  1
  H  H362  1  0.36364519  0.35508573  0.51918904  1
  C  C363  1  0.02543558  0.37634818  0.95302805  1
  H  H364  1  0.41552247  0.42984685  0.59076759  1
  C  C365  1  0.28074510  0.40534242  0.52291741  1
  C  C366  1  0.31075066  0.36735614  0.63097126  1
  H  H367  1  0.15366726  0.43238519  0.53377816  1
  C  C368  1  0.37070661  0.29911243  0.56085579  1
  C  C369  1  0.29967460  0.29604989  0.77619830  1
  H  H370  1  0.39645623  0.37645031  0.67691255  1
  H  H371  1  0.20858309  0.39111117  0.70926575  1
  H  H372  1  0.09183253  0.41445257  0.75582762  1
  H  H373  1  0.19513510  0.39613760  0.95675510  1
  H  H374  1  0.48671549  0.34145056  0.72001516  1
  N  N375  1  0.16373817  0.31847294  0.88537028  1
  C  C376  1  0.17239090  0.47845211  0.87367157  1
  N  N377  1  0.21499411  0.49108085  0.58419775  1
  C  C378  1  0.13166709  0.45831735  0.53447268  1
  H  H379  1  0.33024439  0.43829716  0.92135692  1
  H  H380  1  0.35037353  0.47816444  0.51620546  1
  C  C381  1  0.01392794  0.46091313  0.70551863  1
  C  C382  1  0.29418368  0.47834649  0.84412422  1
  C  C383  1  0.05647600  0.48849971  0.70827918  1
  C  C384  1  0.34507030  0.37913405  0.93915149  1
  H  H385  1  0.09316141  0.48646632  0.66870610  1
  H  H386  1  0.24116078  0.28647274  0.90729119  1
  C  C387  1  0.35441643  0.32633336  0.50779802  1
  C  C388  1  0.04250146  0.41480881  0.94364258  1
  C  C389  1  0.04916423  0.49662889  0.52256115  1
  C  C390  1  0.07433459  0.46245368  0.50750347  1
  H  H391  1  0.00261334  0.35567158  0.51566437  1
  H  H392  1  0.01329021  0.43874723  0.66077115  1
  C  C393  1  0.49514753  0.47456766  0.60199456  1
  N  N394  1  0.29063605  0.49245217  0.97700503  1
  C  C395  1  0.10709651  0.28655347  0.51165570  1
  C  C396  1  0.30346608  0.26270486  0.98167606  1
  C  C397  1  0.03120076  0.33346014  0.50071640  1
  H  H398  1  0.15580249  0.29117929  0.50670716  1
  C  C399  1  0.02845937  0.65852806  0.45672817  1
  C  C400  1  0.38829373  0.62687516  0.39570234  1
  H  H401  1  0.12109787  0.66368716  0.20601054  1
  H  H402  1  0.06392299  0.61302687  0.39221710  1
  H  H403  1  0.43453399  0.68679503  0.35086553  1
  N  N404  1  0.46493804  0.67121736  0.37629075  1
  C  C405  1  0.49139307  0.57026395  0.29769948  1
  C  C406  1  0.13606388  0.72594862  0.13358249  1
  C  C407  1  0.25910769  0.54582917  0.30834515  1
  C  C408  1  0.43983395  0.64489602  0.42362760  1
  N  N409  1  0.14409927  0.72622358  0.45893932  1
  H  H410  1  0.34558109  0.73905133  0.33467852  1
  H  H411  1  0.05321846  0.60019986  0.09165288  1
  N  N412  1  0.23695392  0.57664825  0.43579525  1
  H  H413  1  0.28372764  0.68273622  0.09300903  1
  N  N414  1  0.11417042  0.67910587  0.38166457  1
  C  C415  1  0.08538502  0.57649256  0.22930796  1
  C  C416  1  0.07912833  0.68292884  0.44280029  1
  C  C417  1  0.23093223  0.52646665  0.24805966  1
  C  C418  1  0.15078753  0.66173487  0.04008175  1
  C  C419  1  0.18687710  0.70569306  0.14496905  1
  H  H420  1  0.05275171  0.58158939  0.27100068  1
  H  H421  1  0.22033149  0.71194783  0.18922834  1
  C  C422  1  0.21024534  0.70417513  0.35005487  1
  H  H423  1  0.35250948  0.58003319  0.21405191  1
  H  H424  1  0.19986460  0.55710208  0.06794381  1
  C  C425  1  0.22110510  0.67078879  0.30648020  1
  H  H426  1  0.18696149  0.64976537  0.30529605  1
  H  H427  1  0.00539125  0.63141895  0.11867241  1
  H  H428  1  0.32063109  0.59248662  0.42286827  1
  C  C429  1  0.38102254  0.60395367  0.11051840  1
  H  H430  1  0.41663183  0.59969957  0.22006716  1
  H  H431  1  0.44437200  0.54142560  0.01518860  1
  N  N432  1  0.38246156  0.59550951  0.18505444  1
  C  C433  1  0.13553866  0.53608692  0.14578044  1
  H  H434  1  0.31376024  0.74401814  0.19734037  1
  H  H435  1  0.08410965  0.64579627  0.26837905  1
  N  N436  1  0.11067153  0.50255710  0.35739628  1
  H  H437  1  0.44259136  0.74044750  0.11388912  1
  C  C438  1  0.30850108  0.72126344  0.32808001  1
  N  N439  1  0.39421262  0.70621851  0.01998898  1
  C  C440  1  0.16063091  0.59977789  0.13852472  1
  C  C441  1  0.44760582  0.51969773  0.37198868  1
  H  H442  1  0.39673878  0.71169241  0.23931346  1
  N  N443  1  0.09927831  0.64105378  0.21327119  1
  N  N444  1  0.00812281  0.52199893  0.05595181  1
  C  C445  1  0.09496518  0.54038224  0.20764470  1
  C  C446  1  0.22279730  0.56600696  0.36522750  1
  C  C447  1  0.32136714  0.54412673  0.31164092  1
  H  H448  1  0.22753620  0.68151987  0.47790644  1
  H  H449  1  0.05158222  0.52737248  0.05499322  1
  N  N450  1  0.16402036  0.57339077  0.35220725  1
  C  C451  1  0.27199481  0.66406662  0.26848118  1
  N  N452  1  0.14279577  0.58985345  0.41398203  1
  C  C453  1  0.35047139  0.52381270  0.25509255  1
  N  N454  1  0.37149691  0.68954585  0.24517276  1
  C  C455  1  0.31858052  0.68972784  0.28075230  1
  H  H456  1  0.44040022  0.57687980  0.40440979  1
  C  C457  1  0.03924007  0.73755247  0.06427309  1
  C  C458  1  0.09234204  0.71523181  0.07867930  1
  C  C459  1  0.17252283  0.56467501  0.11406519  1
  C  C460  1  0.19391254  0.67718264  0.08971639  1
  H  H461  1  0.29670505  0.51345129  0.01226799  1
  H  H462  1  0.37649866  0.67562240  0.19338371  1
  H  H463  1  0.47818179  0.69400637  0.21487807  1
  H  H464  1  0.21396971  0.50772360  0.42090891  1
  H  H465  1  0.34614420  0.55735634  0.35596372  1
  H  H466  1  0.27719025  0.63850846  0.23537376  1
  H  H467  1  0.18321304  0.53014330  0.24541105  1
  C  C468  1  0.15568538  0.70441149  0.39374916  1
  H  H469  1  0.18526188  0.62366730  0.12135119  1
  H  H470  1  0.06814616  0.51877707  0.22808595  1
  C  C471  1  0.02800432  0.62235083  0.42619168  1
  C  C472  1  0.33359766  0.59098738  0.06871210  1
  N  N473  1  0.09513650  0.71371753  0.48675692  1
  H  H474  1  0.05301577  0.71988408  0.31223667  1
  H  H475  1  0.37162740  0.63876809  0.34211513  1
  N  N476  1  0.36092415  0.71898951  0.07707085  1
  H  H477  1  0.48482664  0.62471970  0.31347296  1
  C  C478  1  0.11778308  0.60600833  0.19722385  1
  N  N479  1  0.49628191  0.60599897  0.27265819  1
  C  C480  1  0.45830996  0.55702941  0.36069000  1
  C  C481  1  0.32209074  0.74297767  0.04407332  1
  H  H482  1  0.39875378  0.52589433  0.25347143  1
  H  H483  1  0.42205354  0.61898278  0.09676554  1
  H  H484  1  0.29697215  0.57598006  0.09551645  1
  C  C485  1  0.25985399  0.50209424  0.19909031  1
  N  N486  1  0.48123974  0.73651514  0.47183032  1
  H  H487  1  0.49043715  0.68868334  0.40558853  1
  C  C488  1  0.09886306  0.68150152  0.03980091  1
  H  H489  1  0.15466304  0.63721714  0.00305259  1
  N  N490  1  0.25161439  0.66551021  0.08229290  1
  C  C491  1  0.35960807  0.60366901  0.44459466  1
  C  C492  1  0.25508533  0.73096738  0.35840018  1
  H  H493  1  0.26467712  0.65363755  0.03284331  1
  H  H494  1  0.12300999  0.52167795  0.39586236  1
  H  H495  1  0.42018453  0.50933250  0.41942321  1
  N  N496  1  0.01518005  0.61286059  0.07557951  1
  C  C497  1  0.49374330  0.58496671  0.04444578  1
  N  N498  1  0.01180681  0.72260961  0.28942111  1
  N  N499  1  0.14419250  0.50046729  0.03340475  1
  H  H500  1  0.01229810  0.71347890  0.23597258  1
  C  C501  1  0.27387938  0.68086991  0.48952181  1
  C  C502  1  0.18902275  0.59264760  0.46523368  1
  C  C503  1  0.32069406  0.50220015  0.20039945  1
  H  H504  1  0.06359209  0.67302049  0.00427298  1
  C  C505  1  0.46498856  0.63630383  0.49666654  1
  H  H506  1  0.36923092  0.67009606  0.51345096  1
  N  N507  1  0.35638570  0.56912445  0.64621960  1
  H  H508  1  0.31162960  0.67348213  0.89108213  1
  H  H509  1  0.44931606  0.56041519  0.85733406  1
  N  N510  1  0.34164420  0.53154338  0.54607804  1
  H  H511  1  0.44125469  0.56418635  0.66725580  1
  C  C512  1  0.13086855  0.52635852  0.56631376  1
  C  C513  1  0.23102086  0.57603272  0.92303968  1
  C  C514  1  0.38489464  0.72998779  0.79912472  1
  H  H515  1  0.24312658  0.50905771  0.60936082  1
  H  H516  1  0.34182898  0.63420022  0.89766055  1
  C  C517  1  0.17034569  0.70212867  0.88941415  1
  C  C518  1  0.24524881  0.63084037  0.64669472  1
  C  C519  1  0.21930326  0.67864624  0.87477906  1
  Cl  Cl520  1  0.40895925  0.72537142  0.63248038  1
  H  H521  1  0.05873664  0.60070424  0.71360547  1
  H  H522  1  0.10848318  0.65302529  0.72617386  1
  H  H523  1  0.14773110  0.74781821  0.95270509  1
  C  C524  1  0.15366223  0.63117491  0.84386248  1
  C  C525  1  0.14279171  0.59451190  0.80648956  1
  C  C526  1  0.37911237  0.72568901  0.95520627  1
  H  H527  1  0.38541117  0.56504611  0.80311283  1
  C  C528  1  0.35296595  0.53003417  0.88923097  1
  H  H529  1  0.24671778  0.62403225  0.83593915  1
  C  C530  1  0.33731523  0.53634838  0.67122881  1
  C  C531  1  0.10440705  0.65416251  0.85778707  1
  N  N532  1  0.40228841  0.62459996  0.76072250  1
  C  C533  1  0.20999195  0.64195061  0.85183367  1
  C  C534  1  0.35761895  0.54141621  0.81382214  1
  C  C535  1  0.02118400  0.64747098  0.69031416  1
  N  N536  1  0.21854138  0.68935664  0.70508626  1
  H  H537  1  0.47204695  0.51010708  0.51704353  1
  C  C538  1  0.27334587  0.58798428  0.95335432  1
  C  C539  1  0.23575602  0.60201053  0.59709300  1
  H  H540  1  0.10620053  0.63780896  0.51447154  1
  H  H541  1  0.05363818  0.58904463  0.93594240  1
  H  H542  1  0.12283374  0.68641372  0.60934293  1
  N  N543  1  0.02761238  0.60834182  0.67342595  1
  H  H544  1  0.27913977  0.62344849  0.68721047  1
  C  C545  1  0.06401415  0.70670967  0.71251530  1
  H  H546  1  0.45218484  0.60935264  0.60433300  1
  H  H547  1  0.34264106  0.74159048  0.78769403  1
  H  H548  1  0.28780598  0.71518884  0.90189819  1
  C  C549  1  0.11365293  0.68965099  0.87625865  1
  C  C550  1  0.15542183  0.66295567  0.60879575  1
  H  H551  1  0.22009359  0.73951552  0.95359841  1
  C  C552  1  0.45532543  0.60774351  0.75447510  1
  N  N553  1  0.18161390  0.57579552  0.76249493  1
  C  C554  1  0.07405774  0.53070862  0.54364499  1
  H  H555  1  0.36772890  0.54742460  0.93773865  1
  C  C556  1  0.20684994  0.66119814  0.65524953  1
  H  H557  1  0.18855861  0.70943860  0.71569279  1
  H  H558  1  0.16321470  0.50708151  0.88754402  1
  C  C559  1  0.06947318  0.66853323  0.71404147  1
  H  H560  1  0.24400192  0.68411997  0.75208398  1
  C  C561  1  0.35941746  0.56605644  0.56936013  1
  N  N562  1  0.18046187  0.73532277  0.92371069  1
  C  C563  1  0.46740791  0.70647861  0.78263833  1
  H  H564  1  0.10221381  0.72317292  0.72227331  1
  H  H565  1  0.15564170  0.54840287  0.58263062  1
  H  H566  1  0.38359582  0.61415076  0.71053898  1
  C  C567  1  0.10130409  0.54512081  0.77340591  1
  H  H568  1  0.38716230  0.64408046  0.97016228  1
  N  N569  1  0.09173416  0.57641210  0.81510107  1
  C  C570  1  0.40523470  0.72109096  0.87747522  1
  C  C571  1  0.31500449  0.50051235  0.90518070  1
  H  H572  1  0.05871262  0.64313170  0.84604420  1
  C  C573  1  0.43370425  0.61381001  0.54493261  1
  N  N574  1  0.15677118  0.54380022  0.74580201  1
  C  C575  1  0.05438445  0.51735260  0.76328566  1
  H  H576  1  0.40379432  0.65195292  0.76117151  1
  C  C577  1  0.01101361  0.60350641  0.93664302  1
  C  C578  1  0.42216671  0.72146276  0.74071110  1
  C  C579  1  0.32986610  0.52234765  0.74984596  1
  H  H580  1  0.18968209  0.56607406  0.89676246  1
  C  C581  1  0.14157257  0.63465940  0.55819936  1
  C  C582  1  0.47044890  0.57744816  0.70719633  1
  H  H583  1  0.05197767  0.60518411  0.62154982  1
  H  H584  1  0.07785224  0.70872691  0.88234745  1
  C  C585  1  0.45929359  0.70353771  0.86209256  1
  C  C586  1  0.38051893  0.59684213  0.52197229  1
  H  H587  1  0.41880965  0.50790084  0.62593451  1
  C  C588  1  0.18896709  0.60969257  0.54360935  1
  N  N589  1  0.27590033  0.68939058  0.87922629  1
  N  N590  1  0.32920255  0.51265667  0.60927772  1
  H  H591  1  0.26642076  0.58036921  0.58522356  1
  C  C592  1  0.00322447  0.52131119  0.81001325  1
  H  H593  1  0.05454633  0.55723972  0.52862172  1
  C  C594  1  0.46485736  0.57701166  0.90738412  1
  C  C595  1  0.01246714  0.72274048  0.68039303  1
  H  H596  1  0.27963859  0.71459988  0.59863047  1
  N  N597  1  0.01261215  0.73145064  0.99603600  1
  H  H598  1  0.49168477  0.69463898  0.90544042  1
  H  H599  1  0.00310390  0.59573427  0.81335397  1
  H  H600  1  0.00305042  0.54028129  0.85831200  1
  C  C601  1  0.27064349  0.74437086  0.59022578  1
  C  C602  1  0.49461339  0.60763743  0.89379550  1
  N  N603  1  0.33249869  0.74726597  0.96992660  1
  N  N604  1  0.35169797  0.63016570  0.95447680  1
  C  C605  1  0.32372492  0.67727684  0.50338973  1
  C  C606  1  0.46857890  0.56460396  0.99031713  1
  C  C607  1  0.32547039  0.60301197  0.99455212  1
  N  N608  1  0.48892008  0.79831248  0.00693914  1
  C  C609  1  0.36282175  0.92429696  0.01271454  1
  C  C610  1  0.14567023  0.87968038  0.48794181  1
  C  C611  1  0.43015980  0.85570624  0.12283736  1
  H  H612  1  0.26975323  0.84774660  0.27260577  1
  C  C613  1  0.33571006  0.87669497  0.15696002  1
  H  H614  1  0.04987326  0.84244396  0.10192833  1
  H  H615  1  0.10145660  0.95801962  0.39979713  1
  C  C616  1  0.18566206  0.97511966  0.23624793  1
  H  H617  1  0.05526203  0.94629348  0.05676624  1
  H  H618  1  0.00410094  0.94960193  0.36583024  1
  C  C619  1  0.28057847  0.76393446  0.09187832  1
  C  C620  1  0.09483269  0.85869681  0.47142475  1
  C  C621  1  0.12327439  0.87469804  0.06345185  1
  H  H622  1  0.21566892  0.93778862  0.32385416  1
  C  C623  1  0.32978657  0.80141145  0.41938402  1
  C  C624  1  0.24245265  0.78872517  0.05007774  1
  C  C625  1  0.42627024  0.78129648  0.38906028  1
  N  N626  1  0.45821104  0.75975768  0.15034263  1
  C  C627  1  0.40710839  0.83969485  0.05559455  1
  C  C628  1  0.05146112  0.90771542  0.40964889  1
  H  H629  1  0.45171557  0.78423930  0.26979240  1
  C  C630  1  0.32843133  0.97285910  0.09454378  1
  N  N631  1  0.27074689  0.83058926  0.31774969  1
  H  H632  1  0.25844807  0.90707055  0.18396551  1
  C  C633  1  0.41745062  0.79300514  0.31061818  1
  C  C634  1  0.34418030  0.88442297  0.45513810  1
  C  C635  1  0.19699806  0.79966432  0.17303971  1
  H  H636  1  0.13081640  0.75068999  0.17326790  1
  N  N637  1  0.44741862  0.99527174  0.26395648  1
  C  C638  1  0.36637813  0.80810890  0.28675202  1
  H  H639  1  0.29649887  0.80341472  0.45954136  1
  C  C640  1  0.38040120  0.78467803  0.44127819  1
  C  C641  1  0.21752803  0.96647835  0.30344791  1
  H  H642  1  0.01423568  0.85113533  0.41738977  1
  C  C643  1  0.39790082  0.87016792  0.47909538  1
  N  N644  1  0.08018944  0.90501083  0.18273085  1
  C  C645  1  0.08045312  0.84659867  0.05634475  1
  H  H646  1  0.45015682  0.91170533  0.46824904  1
  H  H647  1  0.28540653  0.93041659  0.44813393  1
  C  C648  1  0.14975138  0.94387809  0.19990308  1
  C  C649  1  0.10113153  0.92943268  0.42401738  1
  C  C650  1  0.34581350  0.84250432  0.03862747  1
  C  C651  1  0.23812474  0.77933858  0.21447356  1
  H  H652  1  0.24834868  0.75536158  0.39601167  1
  H  H653  1  0.16556285  0.83213953  0.26062528  1
  N  N654  1  0.33243157  0.99397511  0.15769912  1
  N  N655  1  0.29773879  0.89652827  0.20386630  1
  C  C656  1  0.04857633  0.86993799  0.43118481  1
  C  C657  1  0.32145918  0.81469143  0.34204572  1
  C  C658  1  0.25117312  0.99119556  0.34491823  1
  C  C659  1  0.48152370  0.76585003  0.42333294  1
  N  N660  1  0.17036533  0.92173757  0.14611742  1
  N  N661  1  0.02112071  0.76880804  0.10074272  1
  H  H662  1  0.30807278  0.86614972  0.46482006  1
  N  N663  1  0.09508869  0.93345377  0.22501517  1
  H  H664  1  0.26379850  0.86277374  0.08083245  1
  H  H665  1  0.44546758  0.86417647  0.36523779  1
  H  H666  1  0.09731512  0.82973392  0.49186907  1
  H  H667  1  0.03208300  0.75447292  0.42636970  1
  H  H668  1  0.31812600  0.91413908  0.24310516  1
  C  C669  1  0.39637655  0.87372450  0.17489649  1
  C  C670  1  0.33057605  0.92157868  0.43865524  1
  C  C671  1  0.37873077  0.94842233  0.43202114  1
  C  C672  1  0.14813537  0.91579063  0.46180532  1
  C  C673  1  0.12440839  0.89945765  0.12804342  1
  H  H674  1  0.27997934  0.98301137  0.39094775  1
  H  H675  1  0.03674573  0.87733109  0.26484544  1
  C  C676  1  0.20006979  0.80714289  0.08972831  1
  H  H677  1  0.24777090  0.84254378  0.35924544  1
  N  N678  1  0.15298932  0.81546815  0.21736455  1
  H  H679  1  0.23252384  0.77863785  0.27733023  1
  H  H680  1  0.17089263  0.82407039  0.05691187  1
  C  C681  1  0.43059356  0.94895989  0.36792346  1
  H  H682  1  0.35940384  0.97623736  0.44046286  1
  C  C683  1  0.37152024  0.94504947  0.07861750  1
  H  H684  1  0.12897103  0.83165864  0.18236353  1
  C  C685  1  0.44362108  0.94086195  0.45293844  1
  C  C686  1  0.27676419  0.97872170  0.04577509  1
  C  C687  1  0.31054519  0.86026906  0.08809461  1
  H  H688  1  0.18326465  0.93408037  0.47555925  1
  H  H689  1  0.42709280  0.92698702  0.32196949  1
  H  H690  1  0.41144583  0.88534234  0.22968132  1
  C  C691  1  0.47941602  0.86666448  0.31785498  1
  H  H692  1  0.36263514  0.81969320  0.22749213  1
  C  C693  1  0.45225521  0.98507923  0.33816737  1
  H  H694  1  0.47610328  0.85445446  0.13334929  1
  H  H695  1  0.36515349  0.99627667  0.19793235  1
  H  H696  1  0.46977039  0.94345930  0.01893286  1
  H  H697  1  0.40635827  0.93826565  0.11812294  1
  H  H698  1  0.45932053  0.78329340  0.11942349  1
  C  C699  1  0.02138485  0.93267443  0.02060791  1
  H  H700  1  0.43547981  0.98281300  0.21532582  1
  H  H701  1  0.07108835  0.97583951  0.16507781  1
  C  C702  1  0.01658816  0.85177034  0.25149884  1
  N  N703  1  0.00464004  0.92148017  0.36968714  1
  C  C704  1  0.28020986  0.76160896  0.17495958  1
  C  C705  1  0.47433559  0.96683912  0.49956253  1
  H  H706  1  0.24661850  0.99994639  0.06280232  1
  H  H707  1  0.19966769  0.90156021  0.00529934  1
  C  C708  1  0.16699591  0.88003626  0.00498771  1
  H  H709  1  0.39196416  0.89976755  0.00245761  1
  Cu  Cu710  1  0.42324820  0.88186648  0.80258756  1
  N  N711  1  0.43994967  0.84723937  0.64626969  1
  N  N712  1  0.42260007  0.81762621  0.91945752  1
  N  N713  1  0.17493708  0.93469680  0.80703671  1
  C  C714  1  0.48884781  0.84483389  0.60958965  1
  N  N715  1  0.49628692  0.84909015  0.52974244  1
  C  C716  1  0.44558907  0.85999570  0.50112231  1
  N  N717  1  0.46963674  0.93216612  0.61100860  1
  C  C718  1  0.26195328  0.77585021  0.57944422  1
  H  H719  1  0.15122249  0.95511517  0.83352097  1
  C  C720  1  0.24516678  0.81442278  0.55993759  1
  N  N721  1  0.28115217  0.84535761  0.57069692  1
  C  C722  1  0.26875034  0.95746948  0.98185856  1
  H  H723  1  0.34499430  0.99884827  0.95347169  1
  H  H724  1  0.20112891  0.92438844  0.85074353  1
  C  C725  1  0.13602022  0.90630251  0.77608590  1
  N  N726  1  0.44015351  0.83795275  0.74542032  1
  Cu  Cu727  1  0.39640779  0.91996697  0.57529962  1
  N  N728  1  0.47445430  0.99454745  0.80144815  1
  C  C729  1  0.02099470  0.94178300  0.94007601  1
  N  N730  1  0.04683844  0.98440170  0.83552047  1
  H  H731  1  0.08315203  0.89989042  0.88507050  1
  C  C732  1  0.11356720  0.86322184  0.67347421  1
  H  H733  1  0.12698854  0.81859323  0.81397126  1
  Cu  Cu734  1  0.44463296  0.78837631  0.76560674  1
  Cl  Cl735  1  0.30515190  0.99886562  0.55761484  1
  H  H736  1  0.23323290  0.95950152  0.93952814  1
  H  H737  1  0.18999293  0.89942753  0.67198555  1
  C  C738  1  0.18325011  0.96883219  0.59243102  1
  N  N739  1  0.11419501  0.98348778  0.93253877  1
  C  C740  1  0.05264180  0.86644970  0.79308773  1
  Cu  Cu741  1  0.36444110  0.85158546  0.60895160  1
  C  C742  1  0.43936132  0.81758939  0.99654114  1
  C  C743  1  0.31277771  0.93083484  0.96617246  1
  C  C744  1  0.28017685  0.86369863  0.81333424  1
  N  N745  1  0.49901969  0.89977109  0.84244466  1
  C  C746  1  0.06075493  0.96948002  0.90417174  1
  C  C747  1  0.26629527  0.82488253  0.78902749  1
  C  C748  1  0.24310751  0.80238125  0.72883730  1
  N  N749  1  0.05191547  0.78535061  0.70188539  1
  C  C750  1  0.01240188  0.76396225  0.66938610  1
  C  C751  1  0.30281225  0.90832240  0.89124710  1
  C  C752  1  0.49990179  0.95528924  0.57518670  1
  Cu  Cu753  1  0.23315111  0.95232421  0.73283419  1
  Cu  Cu754  1  0.29461294  0.90414169  0.66140591  1
  N  N755  1  0.11147615  0.80849684  0.86687362  1
  N  N756  1  0.28974756  0.89286270  0.76562830  1
  C  C757  1  0.08992696  0.89228205  0.82309529  1
  C  C758  1  0.14921904  0.89192804  0.70316957  1
  H  H759  1  0.07003746  0.80285461  0.85785401  1
  H  H760  1  0.20808773  0.78180867  0.84652930  1
  N  N761  1  0.28318582  0.87163827  0.88812486  1
  C  C762  1  0.22928765  0.98076899  0.57740038  1
  H  H763  1  0.13828979  0.96026576  0.60447827  1
  C  C764  1  0.02594936  0.91859322  0.65011047  1
  Cu  Cu765  1  0.35992622  0.83031467  0.75983161  1
  Cu  Cu766  1  0.32827033  0.97160501  0.78391201  1
  N  N767  1  0.19327080  0.82348545  0.53336450  1
  H  H768  1  0.20839496  0.80799902  0.68616127  1
  H  H769  1  0.12205138  0.85206391  0.61434083  1
  C  C770  1  0.12249983  0.83059894  0.92924570  1
  C  C771  1  0.03356042  0.81917498  0.68444016  1
  Cl  Cl772  1  0.36712429  0.94398226  0.68168274  1
  N  N773  1  0.30768489  0.92644403  0.82714020  1
  Cu  Cu774  1  0.43449084  0.98324025  0.71219874  1
  C  C775  1  0.06511306  0.85177322  0.71820343  1
  C  C776  1  0.16804735  0.85856690  0.93893550  1
  C  C777  1  0.24192373  0.78946425  0.80413749  1
  N  N778  1  0.24749839  0.87366833  0.54799375  1
  H  H779  1  0.19827662  0.86303440  0.89318845  1
  N  N780  1  0.46254816  0.79812407  0.88084331  1
  H  H781  1  0.01539906  0.85709235  0.82631615  1
  Cu  Cu782  1  0.49230764  0.90630101  0.69453725  1
  H  H783  1  0.05928414  0.90822735  0.69296381  1
  H  H784  1  0.38923759  0.77714632  0.50056713  1
  C  C785  1  0.19559782  0.86069222  0.52650071  1
  H  H786  1  0.00727105  0.97549776  0.68718456  1
  H  H787  1  0.24777041  0.79459702  0.98738627  1
  H  H788  1  0.33143580  0.82946493  0.98546825  1
  H  H789  1  0.05378644  0.80103845  0.98700449  1
  C  C790  1  0.08414636  0.82456410  0.99397932  1
  C  C791  1  0.55233696  0.08867695  0.08129082  1
  C  C792  1  0.97619300  0.21440754  0.03228104  1
  H  H793  1  0.93495995  0.17570054  0.28528770  1
  H  H794  1  0.86325788  0.09385454  0.23703266  1
  H  H795  1  0.80697136  0.07266354  0.33872804  1
  C  C796  1  0.90774619  0.12810079  0.11791935  1
  Cu  Cu797  1  0.88417221  0.12406483  0.36393166  1
  C  C798  1  0.73451873  0.05472825  0.45342186  1
  C  C799  1  0.72681945  0.00567563  0.20354217  1
  N  N800  1  0.96682504  0.10923105  0.35674519  1
  C  C801  1  0.66122036  0.21223699  0.12540494  1
  C  C802  1  0.90815920  0.13731021  0.19667702  1
  H  H803  1  0.61806240  0.02707714  0.18377139  1
  C  C804  1  0.95818749  0.18374157  0.08773175  1
  N  N805  1  0.63173518  0.02698573  0.23908246  1
  C  C806  1  0.73074004  0.24164957  0.03621238  1
  C  C807  1  0.71497652  0.05364633  0.30737493  1
  H  H808  1  0.59979400  0.18470134  0.24333952  1
  C  C809  1  0.87810521  0.01845298  0.26975385  1
  C  C810  1  0.51131519  0.08607144  0.14228887  1
  H  H811  1  0.73996752  0.00266589  0.39276994  1
  H  H812  1  0.69814092  0.08251784  0.30766668  1
  H  H813  1  0.76732922  0.17466831  0.06438342  1
  C  C814  1  0.54315642  0.19658221  0.36699359  1
  C  C815  1  0.85287415  0.02404608  0.03881164  1
  H  H816  1  0.53662147  0.12841983  0.47845143  1
  C  C817  1  0.68638489  0.20627804  0.26681948  1
  C  C818  1  0.69024003  0.02793710  0.24624129  1
  H  H819  1  0.72036531  0.19796461  0.37697941  1
  C  C820  1  0.73717476  0.03311335  0.38365022  1
  H  H821  1  0.61040740  0.04946149  0.26149607  1
  C  C822  1  0.81611471  0.02525519  0.26560408  1
  H  H823  1  0.65863661  0.03132356  0.08182989  1
  H  H824  1  0.76712142  0.21428414  0.31676884  1
  Cu  Cu825  1  0.88770983  0.06048684  0.42004950  1
  C  C826  1  0.96060264  0.19218929  0.16854317  1
  C  C827  1  0.79566109  0.03246878  0.00954472  1
  C  C828  1  0.78636355  0.00537660  0.20853237  1
  H  H829  1  0.97643767  0.21834975  0.19106346  1
  Cl  Cl830  1  0.87396223  0.12468907  0.48766350  1
  C  C831  1  0.60630835  0.20026961  0.36132300  1
  H  H832  1  0.96763498  0.07993686  0.36286201  1
  C  C833  1  0.93458646  0.16922937  0.22331893  1
  H  H834  1  0.73031622  0.08425513  0.45192657  1
  H  H835  1  0.81657986  0.14496593  0.08833974  1
  H  H836  1  0.79634042  0.22394678  0.21019043  1
  H  H837  1  0.62878908  0.21394552  0.41000428  1
  H  H838  1  0.89152640  0.10026400  0.10323226  1
  N  N839  1  0.79287002  0.15513578  0.04437289  1
  H  H840  1  0.95965433  0.11171332  0.29619416  1
  H  H841  1  0.66234024  0.13238316  0.19083510  1
  N  N842  1  0.72771337  0.20166076  0.32081627  1
  C  C843  1  0.70246264  0.21438590  0.18791245  1
  C  C844  1  0.62204627  0.11593342  0.17872612  1
  N  N845  1  0.86794530  0.12014017  0.25375264  1
  N  N846  1  0.90831697  0.02746256  0.33781997  1
  C  C847  1  0.62826206  0.19495972  0.28866715  1
  N  N848  1  0.53485668  0.22720512  0.07392534  1
  C  C849  1  0.51514975  0.22837186  0.42361069  1
  C  C850  1  0.67399481  0.22943242  0.05544282  1
  C  C851  1  0.77341037  0.24000096  0.09720316  1
  C  C852  1  0.78079735  0.04934382  0.31574844  1
  H  H853  1  0.82537966  0.13091267  0.24969969  1
  C  C854  1  0.96016648  0.01166694  0.31770381  1
  N  N855  1  0.51902688  0.22457121  0.49898554  1
  H  H856  1  0.92934570  0.14491803  0.00039667  1
  C  C857  1  0.76169420  0.22477765  0.16778269  1
  C  C858  1  0.93348774  0.15112476  0.06123831  1
  C  C859  1  0.58010962  0.11238395  0.23296335  1
  H  H860  1  0.91525126  0.04918294  0.10154078  1
  N  N861  1  0.88817276  0.05417091  0.05564496  1
  H  H862  1  0.55038971  0.23613607  0.21733738  1
  H  H863  1  0.59094203  0.12438109  0.28823477  1
  C  C864  1  0.52435012  0.09598263  0.21711409  1
  C  C865  1  0.60656511  0.10388396  0.10220248  1
  H  H866  1  0.90072414  0.22565713  0.05727445  1
  H  H867  1  0.61819924  0.20137353  0.13771446  1
  H  H868  1  0.96733447  0.02075278  0.47622221  1
  C  C869  1  0.62572359  0.02549085  0.03498171  1
  H  H870  1  0.98924250  0.17739426  0.39898165  1
  H  H871  1  0.92012025  0.05991828  0.01369477  1
  H  H872  1  0.64391602  0.00146320  0.36030988  1
  H  H873  1  0.64002630  0.23655997  0.01167521  1
  H  H874  1  0.53984537  0.08220674  0.02154085  1
  C  C875  1  0.50430329  0.17841554  0.32266075  1
  N  N876  1  0.65285976  0.11141127  0.05234526  1
  H  H877  1  0.69233639  0.11855148  0.06361291  1
  C  C878  1  0.52009613  0.21825858  0.00160313  1
  N  N879  1  0.92290219  0.23011495  0.00515932  1
  H  H880  1  0.96444436  0.16746794  0.62373702  1
  C  C881  1  0.88492031  0.02905494  0.64475239  1
  H  H882  1  0.91272048  0.09296197  0.71138306  1
  C  C883  1  0.50526508  0.05739801  0.67721696  1
  Cu  Cu884  1  0.86516180  0.12692619  0.61836395  1
  H  H885  1  0.66797351  0.06024994  0.75695625  1
  C  C886  1  0.94268231  0.15519311  0.75503548  1
  C  C887  1  0.67325418  0.03040463  0.74794960  1
  Cu  Cu888  1  0.94444129  0.09374432  0.54524272  1
  H  H889  1  0.72625954  0.17654308  0.80219331  1
  N  N890  1  0.89196180  0.15834161  0.70473606  1
  N  N891  1  0.98706614  0.04588552  0.93815251  1
  H  H892  1  0.51093221  0.20060674  0.84830379  1
  H  H893  1  0.97398858  0.05122445  0.62980808  1
  N  N894  1  0.65262109  0.16200697  0.67064807  1
  C  C895  1  0.94529019  0.22444090  0.59934754  1
  H  H896  1  0.76089715  0.05301594  0.80615916  1
  H  H897  1  0.99269705  0.12065142  0.66867857  1
  C  C898  1  0.72671987  0.00987021  0.75481497  1
  H  H899  1  0.96794135  0.16492365  0.94367562  1
  N  N900  1  0.56081437  0.00980554  0.91568601  1
  N  N901  1  0.87593789  0.03120562  0.51780636  1
  H  H902  1  0.59494352  0.02990232  0.69487372  1
  N  N903  1  0.88312530  0.18912135  0.85786056  1
  Cu  Cu904  1  0.97334617  0.24869608  0.91481472  1
  H  H905  1  0.78374300  0.19392292  0.54251699  1
  C  C906  1  0.63221351  0.01341094  0.70416804  1
  Cu  Cu907  1  0.85622270  0.20681160  0.96165539  1
  C  C908  1  0.61379601  0.14643520  0.71889943  1
  C  C909  1  0.77712842  0.11254368  0.73364166  1
  C  C910  1  0.98279519  0.19443962  0.60204298  1
  C  C911  1  0.53631166  0.24362460  0.65751930  1
  C  C912  1  0.76023096  0.08201000  0.64453055  1
  C  C913  1  0.58033644  0.09515176  0.63430491  1
  C  C914  1  0.97766069  0.15937485  0.87981563  1
  C  C915  1  0.78840171  0.14524461  0.96882760  1
  H  H916  1  0.51661894  0.15971646  0.60043435  1
  N  N917  1  0.53151812  0.24742343  0.95127041  1
  C  C918  1  0.75383053  0.16679397  0.91674788  1
  C  C919  1  0.75156474  0.15788846  0.84161934  1
  C  C920  1  0.55024126  0.09831214  0.77284334  1
  H  H921  1  0.99775039  0.01920489  0.75400863  1
  H  H922  1  0.52525723  0.05996764  0.55285646  1
  H  H923  1  0.88634123  0.18459058  0.68465639  1
  C  C924  1  0.93395146  0.16924695  0.82973632  1
  C  C925  1  0.89801577  0.03325103  0.72654838  1
  C  C926  1  0.66466715  0.19444294  0.70568849  1
  C  C927  1  0.92823189  0.00955824  0.85140955  1
  H  H928  1  0.85218808  0.16987544  0.85593478  1
  H  H929  1  0.85273450  0.10190838  0.98154611  1
  C  C930  1  0.91571276  0.06949834  0.75041446  1
  N  N931  1  0.60652890  0.16774334  0.78480312  1
  C  C932  1  0.59058346  0.01985543  0.98393833  1
  C  C933  1  0.74769409  0.22210268  0.62532534  1
  C  C934  1  0.58332369  0.11049749  0.70818090  1
  H  H935  1  0.55106039  0.21803057  0.63618777  1
  H  H936  1  0.84504447  0.08374894  0.84330053  1
  H  H937  1  0.60686630  0.10542644  0.58545866  1
  C  C938  1  0.82405156  0.11513431  0.94156321  1
  H  H939  1  0.86818673  0.20617116  0.81626421  1
  N  N940  1  0.63789581  0.19775480  0.77726253  1
  H  H941  1  0.72767804  0.19176600  0.93633520  1
  C  C942  1  0.73429974  0.03911251  0.52631733  1
  H  H943  1  0.85632687  0.16086545  0.74733207  1
  N  N944  1  0.90378765  0.04777275  0.57833631  1
  N  N945  1  0.76917638  0.02699413  0.79799899  1
  H  H946  1  0.72753287  0.17139120  0.60498940  1
  C  C947  1  0.74782835  0.06032910  0.59259066  1
  N  N948  1  0.79699238  0.10895408  0.67073370  1
  C  C949  1  0.53563571  0.07156681  0.61229286  1
  C  C950  1  0.51064700  0.01693250  0.93818405  1
  C  C951  1  0.94830832  0.04503785  0.87610637  1
  H  H952  1  0.55454359  0.10713940  0.83224639  1
  C  C953  1  0.81827271  0.10632958  0.86438660  1
  C  C954  1  0.93738214  0.07462118  0.82411763  1
  C  C955  1  0.78146772  0.12587247  0.81095512  1
  C  C956  1  0.84684090  0.00176655  0.55156310  1
  C  C957  1  0.70305860  0.22438420  0.67844162  1
  H  H958  1  0.80879144  0.02503003  0.76870988  1
  H  H959  1  0.56504971  0.23273247  0.77318000  1
  H  H960  1  0.95036483  0.10379151  0.83714442  1
  C  C961  1  0.98976086  0.13285509  0.72625539  1
  N  N962  1  0.75985471  0.18912743  0.59045534  1
  H  H963  1  0.64605046  0.11180773  0.99673323  1
  C  C964  1  0.51358353  0.07046183  0.75409982  1
  H  H965  1  0.72376769  0.00897891  0.95054499  1
  H  H966  1  0.77429362  0.24580956  0.60872293  1
  C  C967  1  0.90187067  0.00366764  0.78279560  1
  C  C968  1  0.76079775  0.00287999  0.98672048  1
  H  H969  1  0.73605166  0.00953379  0.52543954  1
  H  H970  1  0.78411834  0.06128964  0.99759288  1
  H  H971  1  0.50920636  0.02181195  0.50141103  1
  N  N972  1  0.50773418  0.44508911  0.10560973  1
  C  C973  1  0.90283961  0.31045198  0.12382010  1
  C  C974  1  0.88220385  0.29409774  0.19186403  1
  H  H975  1  0.64384004  0.36107255  0.18187177  1
  H  H976  1  0.58375537  0.42705679  0.28211786  1
  H  H977  1  0.76686584  0.32257481  0.23012051  1
  H  H978  1  0.63666753  0.35888977  0.34088008  1
  N  N979  1  0.72835153  0.35217264  0.47802509  1
  C  C980  1  0.63980804  0.41613926  0.11095422  1
  H  H981  1  0.71889164  0.26236697  0.37506020  1
  C  C982  1  0.83429706  0.28427379  0.48168959  1
  C  C983  1  0.80743054  0.44009229  0.39898800  1
  C  C984  1  0.77217062  0.45621642  0.08459559  1
  C  C985  1  0.57001924  0.35850765  0.48557602  1
  H  H986  1  0.71828806  0.29867691  0.26167934  1
  H  H987  1  0.68699806  0.41795564  0.30431857  1
  C  C988  1  0.62354221  0.33327263  0.18577475  1
  C  C989  1  0.67363313  0.36624267  0.47453967  1
  H  H990  1  0.60222505  0.42370996  0.07445295  1
  C  C991  1  0.56887835  0.26302193  0.21329181  1
  C  C992  1  0.91436156  0.27571905  0.24660443  1
  C  C993  1  0.60011731  0.49358954  0.08690261  1
  C  C994  1  0.86715142  0.30837925  0.43251065  1
  H  H995  1  0.51679697  0.48217235  0.48202139  1
  H  H996  1  0.77145487  0.45403164  0.28427990  1
  C  C997  1  0.56874963  0.28076532  0.14016611  1
  H  H998  1  0.86655849  0.33409174  0.31716453  1
  C  C999  1  0.55483295  0.49315143  0.03074835  1
  N  N1000  1  0.63837294  0.33189568  0.33216256  1
  N  N1001  1  0.92468792  0.37725672  0.27632388  1
  C  C1002  1  0.59729994  0.31616488  0.12623680  1
  N  N1003  1  0.76141509  0.30288320  0.27214213  1
  H  H1004  1  0.76358732  0.37547943  0.24812814  1
  C  C1005  1  0.77811062  0.26993350  0.46416365  1
  H  H1006  1  0.95197636  0.36096294  0.30002629  1
  C  C1007  1  0.79152909  0.29766301  0.33909398  1
  C  C1008  1  0.95861503  0.31265124  0.09839140  1
  C  C1009  1  0.84635826  0.41856790  0.44313148  1
  C  C1010  1  0.61026678  0.41371565  0.41985312  1
  C  C1011  1  0.73104790  0.38710398  0.12839685  1
  C  C1012  1  0.80497186  0.43956714  0.31852565  1
  H  H1013  1  0.94361023  0.45242033  0.07749443  1
  C  C1014  1  0.68731563  0.41207270  0.24320908  1
  C  C1015  1  0.73152741  0.39032123  0.20889123  1
  H  H1016  1  0.55139616  0.43489633  0.20302918  1
  C  C1017  1  0.68745085  0.40111122  0.07755784  1
  H  H1018  1  0.92076985  0.38447634  0.43845802  1
  C  C1019  1  0.98670006  0.49927013  0.49015414  1
  C  C1020  1  0.86185026  0.43170268  0.02870038  1
  C  C1021  1  0.56159109  0.39113000  0.44328176  1
  C  C1022  1  0.84512201  0.41824477  0.27898000  1
  C  C1023  1  0.80536465  0.47580167  0.13762167  1
  C  C1024  1  0.88825023  0.39959753  0.32053682  1
  C  C1025  1  0.66376060  0.40120946  0.43631967  1
  H  H1026  1  0.51303414  0.33231511  0.28201074  1
  C  C1027  1  0.77858450  0.36326781  0.09096765  1
  C  C1028  1  0.85107924  0.33114490  0.08753381  1
  C  C1029  1  0.75835012  0.27670398  0.39182345  1
  H  H1030  1  0.59868655  0.32979121  0.06701254  1
  H  H1031  1  0.72461660  0.45513290  0.08515725  1
  C  C1032  1  0.59077171  0.28308031  0.27422905  1
  C  C1033  1  0.84569082  0.31522447  0.35843168  1
  N  N1034  1  0.81719987  0.34810468  0.13855321  1
  H  H1035  1  0.70014255  0.41818546  0.41572895  1
  C  C1036  1  0.80185135  0.43675119  0.02549022  1
  N  N1037  1  0.59113640  0.43787449  0.22877796  1
  C  C1038  1  0.55490912  0.26126112  0.06837625  1
  C  C1039  1  0.61563861  0.31826410  0.26299461  1
  H  H1040  1  0.84331669  0.41360940  0.21777946  1
  H  H1041  1  0.89271775  0.48790595  0.17937009  1
  C  C1042  1  0.86804476  0.47329056  0.13687360  1
  H  H1043  1  0.91539883  0.36800014  0.22090487  1
  C  C1044  1  0.76419121  0.46748021  0.43800909  1
  H  H1045  1  0.59055737  0.27142052  0.33243150  1
  C  C1046  1  0.63908658  0.42154924  0.19507140  1
  H  H1047  1  0.60606532  0.44077489  0.39099954  1
  C  C1048  1  0.89566793  0.45263189  0.08228744  1
  N  N1049  1  0.78685495  0.35502118  0.01553375  1
  H  H1050  1  0.83457049  0.29501758  0.20127668  1
  C  C1051  1  0.88864362  0.39848498  0.40411342  1
  H  H1052  1  0.62731265  0.32176647  0.38432648  1
  H  H1053  1  0.69278395  0.39682892  0.01502791  1
  H  H1054  1  0.76057418  0.36553735  0.45231480  1
  H  H1055  1  0.51802728  0.48680686  0.21267012  1
  H  H1056  1  0.90842709  0.31954009  0.45294743  1
  C  C1057  1  0.99057029  0.48273020  0.25973039  1
  H  H1058  1  0.74165604  0.32578650  0.47933270  1
  C  C1059  1  0.96406943  0.33141875  0.02193548  1
  C  C1060  1  0.50460142  0.46893820  0.04538582  1
  C  C1061  1  0.50412158  0.40206667  0.41028147  1
  N  N1062  1  0.76839762  0.49901758  0.40815572  1
  H  H1063  1  0.89395267  0.26345313  0.29930649  1
  H  H1064  1  0.81623446  0.25170122  0.09008799  1
  H  H1065  1  0.59296620  0.48178984  0.14223000  1
  N  N1066  1  0.83632409  0.33585503  0.01175366  1
  N  N1067  1  0.50557495  0.43646465  0.38262200  1
  H  H1068  1  0.51923405  0.39343987  0.22908945  1
  C  C1069  1  0.97520642  0.27430183  0.23610611  1
  H  H1070  1  0.99336251  0.30107667  0.12577250  1
  H  H1071  1  0.63155605  0.49680763  0.30017306  1
  N  N1072  1  0.73080935  0.45307791  0.49165670  1
  Cu  Cu1073  1  0.97084506  0.32109003  0.80814451  1
  H  H1074  1  0.70525745  0.32819475  0.89698992  1
  H  H1075  1  0.92565618  0.49561658  0.84729528  1
  H  H1076  1  0.50968791  0.41330829  0.98567140  1
  C  C1077  1  0.74757195  0.32127782  0.65425487  1
  C  C1078  1  0.65515858  0.28582520  0.65381504  1
  C  C1079  1  0.61573608  0.44661581  0.72760326  1
  H  H1080  1  0.53606133  0.28970937  0.87354659  1
  H  H1081  1  0.59782112  0.33256759  0.93567326  1
  H  H1082  1  0.86970642  0.38624698  0.97268458  1
  H  H1083  1  0.69788686  0.45060694  0.88883210  1
  C  C1084  1  0.76475074  0.30642091  0.72762719  1
  C  C1085  1  0.73482176  0.27825304  0.75980024  1
  H  H1086  1  0.70353287  0.40583469  0.54800661  1
  C  C1087  1  0.63764576  0.46912895  0.66920533  1
  H  H1088  1  0.61309443  0.28215839  0.62353256  1
  C  C1089  1  0.96623463  0.46317019  0.75767836  1
  H  H1090  1  0.93236983  0.40549197  0.97991292  1
  C  C1091  1  0.54460217  0.25301999  0.73260965  1
  C  C1092  1  0.96136116  0.49426422  0.80789912  1
  Cu  Cu1093  1  0.88942539  0.26835479  0.80441572  1
  C  C1094  1  0.52479484  0.28928313  0.75254229  1
  C  C1095  1  0.67488300  0.42539434  0.90462322  1
  H  H1096  1  0.56469988  0.43175701  0.57357881  1
  H  H1097  1  0.63041909  0.35749925  0.77768465  1
  C  C1098  1  0.69353483  0.30842892  0.63682324  1
  Cu  Cu1099  1  0.96624768  0.39286236  0.81764737  1
  C  C1100  1  0.69380944  0.47434852  0.53210463  1
  N  N1101  1  0.88893435  0.41017554  0.97187915  1
  C  C1102  1  0.83187023  0.49659567  0.89115988  1
  C  C1103  1  0.76036411  0.26526657  0.83425368  1
  C  C1104  1  0.62880834  0.40802242  0.71933098  1
  N  N1105  1  0.53853401  0.39254295  0.97005479  1
  N  N1106  1  0.91590848  0.35850420  0.77660323  1
  N  N1107  1  0.93014594  0.29677821  0.89970708  1
  C  C1108  1  0.50207298  0.25886772  0.52238686  1
  C  C1109  1  0.75240221  0.25172905  0.96061504  1
  C  C1110  1  0.68128469  0.35548648  0.90617238  1
  C  C1111  1  0.76177902  0.39497208  0.84955143  1
  C  C1112  1  0.70580255  0.39155201  0.88872075  1
  C  C1113  1  0.59728255  0.39197438  0.95393764  1
  C  C1114  1  0.62486524  0.42604869  0.94485156  1
  H  H1115  1  0.89015021  0.43856558  0.78807497  1
  N  N1116  1  0.85797682  0.35955936  0.83683355  1
  H  H1117  1  0.58987382  0.45695909  0.77332179  1
  H  H1118  1  0.60391948  0.39070733  0.82591226  1
  C  C1119  1  0.79955371  0.40829433  0.64543546  1
  C  C1120  1  0.62410178  0.35806833  0.93014858  1
  C  C1121  1  0.94577724  0.31258863  0.95442509  1
  N  N1122  1  0.72372201  0.26209029  0.89974058  1
  H  H1123  1  0.63212872  0.49861384  0.67283943  1
  H  H1124  1  0.84547374  0.47030477  0.91911345  1
  C  C1125  1  0.68392919  0.25900191  0.71944684  1
  C  C1126  1  0.67860260  0.41817733  0.59652179  1
  H  H1127  1  0.77611150  0.33644894  0.61781271  1
  C  C1128  1  0.93262543  0.38971318  0.56381809  1
  Cu  Cu1129  1  0.84562256  0.31827714  0.89093761  1
  N  N1130  1  0.92864053  0.43247310  0.76387682  1
  Cu  Cu1131  1  0.90650110  0.39262431  0.69675526  1
  H  H1132  1  0.76566462  0.47374098  0.81445287  1
  H  H1133  1  0.87658201  0.34255633  0.55152133  1
  C  C1134  1  0.66161995  0.39494966  0.65632616  1
  N  N1135  1  0.79440534  0.41625634  0.81521631  1
  C  C1136  1  0.67020843  0.45573367  0.60402117  1
  H  H1137  1  0.80311911  0.31885083  0.75756981  1
  H  H1138  1  0.60507231  0.45177223  0.96591234  1
  N  N1139  1  0.60863470  0.38214410  0.77255181  1
  C  C1140  1  0.83750951  0.39253162  0.61416869  1
  C  C1141  1  0.86215860  0.27360273  0.55591216  1
  N  N1142  1  0.81561241  0.26042692  0.85009936  1
  H  H1143  1  0.67361645  0.36628652  0.65142648  1
  H  H1144  1  0.76133982  0.42059963  0.67289098  1
  N  N1145  1  0.88250131  0.28580964  0.61597879  1
  Cu  Cu1146  1  0.90386969  0.32324689  0.69601593  1
  N  N1147  1  0.55696806  0.27350346  0.99010461  1
  C  C1148  1  0.88416889  0.37091447  0.57498353  1
  C  C1149  1  0.82182477  0.38604431  0.82736649  1
  N  N1150  1  0.52149090  0.30285408  0.82666233  1
  H  H1151  1  0.97136915  0.43999923  0.53879529  1
  C  C1152  1  0.50153866  0.31504350  0.69678540  1
  H  H1153  1  0.54076919  0.39732135  0.68529419  1
  C  C1154  1  0.97904568  0.41015190  0.55361757  1
  H  H1155  1  0.53359248  0.34305458  0.50823478  1
  Cu  Cu1156  1  0.87359564  0.27576273  0.99819543  1
  H  H1157  1  0.63135001  0.31704751  0.52715131  1
  C  C1158  1  0.90618994  0.25256637  0.59771192  1
  H  H1159  1  0.64980007  0.25189676  0.75984607  1
  C  C1160  1  0.52948639  0.44183570  0.61330521  1
  H  H1161  1  0.78157466  0.42227961  0.97852508  1
  C  C1162  1  0.51042803  0.26910540  0.60328717  1
  C  C1163  1  0.51412061  0.42229346  0.67664909  1
  N  N1164  1  0.81471671  0.25067689  0.94416086  1
  H  H1165  1  0.75321258  0.25293165  0.50064877  1
  N  N1166  1  0.50430486  0.49419653  0.53522088  1
  C  C1167  1  0.78752883  0.49738880  0.83502248  1
  H  H1168  1  0.84791218  0.42450272  0.50523604  1
  C  C1169  1  0.62488446  0.34454035  0.50073498  1
  H  H1170  1  0.51237509  0.37065993  0.97762488  1
  C  C1171  1  0.59741995  0.53073634  0.38710643  1
  H  H1172  1  0.74994834  0.74536638  0.25372965  1
  N  N1173  1  0.94140546  0.62706085  0.24934533  1
  C  C1174  1  0.72179762  0.53819351  0.25438245  1
  H  H1175  1  0.70403114  0.60589826  0.30437160  1
  Cu  Cu1176  1  0.82315171  0.50970872  0.33535888  1
  H  H1177  1  0.61933188  0.69225855  0.43918437  1
  C  C1178  1  0.82283727  0.72792971  0.18179872  1
  H  H1179  1  0.93488326  0.68356944  0.35112848  1
  N  N1180  1  0.79691325  0.66768288  0.02845885  1
  H  H1181  1  0.98172608  0.57073181  0.43032936  1
  N  N1182  1  0.98704590  0.50128968  0.41249084  1
  H  H1183  1  0.87926571  0.56315623  0.11385270  1
  C  C1184  1  0.56410883  0.70566595  0.25452221  1
  C  C1185  1  0.98126273  0.59937546  0.44469513  1
  H  H1186  1  0.52751144  0.61666877  0.23746032  1
  C  C1187  1  0.65248257  0.50905681  0.07747185  1
  N  N1188  1  0.52332266  0.64068063  0.12597784  1
  C  C1189  1  0.59734443  0.56730992  0.41817304  1
  H  H1190  1  0.74109494  0.63760029  0.23998063  1
  N  N1191  1  0.80710333  0.53606135  0.20083446  1
  H  H1192  1  0.62649845  0.69685737  0.14262609  1
  Cu  Cu1193  1  0.95879243  0.56186801  0.01762435  1
  H  H1194  1  0.56798022  0.67877481  0.28197396  1
  C  C1195  1  0.50243613  0.50518656  0.25599299  1
  H  H1196  1  0.64790397  0.59057801  0.04064118  1
  C  C1197  1  0.51236157  0.54242298  0.24479820  1
  H  H1198  1  0.63495218  0.62378857  0.41507964  1
  N  N1199  1  0.72589102  0.71764839  0.39927131  1
  C  C1200  1  0.84388362  0.68810247  0.34614469  1
  H  H1201  1  0.74897730  0.60599820  0.00284308  1
  H  H1202  1  0.53078529  0.55346582  0.19500081  1
  N  N1203  1  0.77222346  0.55773980  0.23964124  1
  C  C1204  1  0.95369096  0.50984963  0.28873227  1
  C  C1205  1  0.63196539  0.52295962  0.32513369  1
  C  C1206  1  0.66827775  0.61538599  0.05680244  1
  N  N1207  1  0.69497479  0.69446162  0.28387895  1
  C  C1208  1  0.60916605  0.73141421  0.26234519  1
  C  C1209  1  0.67144706  0.58792654  0.32824340  1
  H  H1210  1  0.74552366  0.52980185  0.02321900  1
  H  H1211  1  0.83922739  0.61118788  0.18684875  1
  C  C1212  1  0.92835992  0.53704796  0.24326461  1
  C  C1213  1  0.65958584  0.72014905  0.31302108  1
  C  C1214  1  0.85311405  0.73405177  0.11006255  1
  H  H1215  1  0.90962706  0.69445704  0.13351067  1
  N  N1216  1  0.89635923  0.70884850  0.08810475  1
  H  H1217  1  0.92092188  0.65427668  0.05613492  1
  C  C1218  1  0.88958756  0.64366651  0.26875197  1
  C  C1219  1  0.83625944  0.63202835  0.23095653  1
  C  C1220  1  0.72427592  0.62257354  0.04117754  1
  C  C1221  1  0.52219862  0.60896992  0.09366204  1
  C  C1222  1  0.63313950  0.64201513  0.09506840  1
  C  C1223  1  0.93091026  0.61761601  0.47707094  1
  H  H1224  1  0.85262073  0.60448969  0.44276030  1
  C  C1225  1  0.78410082  0.64643018  0.25923280  1
  C  C1226  1  0.63354861  0.59631048  0.38839367  1
  H  H1227  1  0.56587947  0.74529054  0.04705905  1
  C  C1228  1  0.77892153  0.50272467  0.19113316  1
  H  H1229  1  0.73322706  0.71123609  0.12336360  1
  C  C1230  1  0.74570622  0.65782050  0.06232891  1
  C  C1231  1  0.51221357  0.71498965  0.22007281  1
  C  C1232  1  0.79132691  0.67544995  0.31332488  1
  C  C1233  1  0.94536603  0.53630002  0.16362825  1
  C  C1234  1  0.65701478  0.67614720  0.11952729  1
  C  C1235  1  0.73773268  0.69510301  0.33965514  1
  C  C1236  1  0.67163356  0.55031091  0.30149177  1
  N  N1237  1  0.92381880  0.56731064  0.11861685  1
  H  H1238  1  0.62236569  0.68945240  0.01255955  1
  C  C1239  1  0.57373344  0.63163415  0.11076605  1
  C  C1240  1  0.89384634  0.67081612  0.32506690  1
  H  H1241  1  0.84112122  0.70970954  0.39188779  1
  H  H1242  1  0.93289402  0.72365162  0.07158824  1
  N  N1243  1  0.72682282  0.50268848  0.22837203  1
  N  N1244  1  0.67701696  0.73500719  0.38320170  1
  H  H1245  1  0.56497350  0.50984435  0.40626602  1
  H  H1246  1  0.88042426  0.52005766  0.03177391  1
  Cu  Cu1247  1  0.70671513  0.53196721  0.42615575  1
  H  H1248  1  0.89446213  0.55553188  0.26430800  1
  H  H1249  1  0.83134785  0.70163994  0.21229367  1
  H  H1250  1  0.91577815  0.74466068  0.23509952  1
  C  C1251  1  0.71266661  0.68531231  0.10112410  1
  H  H1252  1  0.81983802  0.68758468  0.05260724  1
  H  H1253  1  0.91988051  0.59633091  0.12836413  1
  N  N1254  1  0.88583909  0.51266548  0.39701864  1
  H  H1255  1  0.97286953  0.63064744  0.28911644  1
  C  C1256  1  0.98720878  0.51251604  0.13546040  1
  C  C1257  1  0.98191336  0.67467323  0.49672427  1
  H  H1258  1  0.94912791  0.60599070  0.21374966  1
  H  H1259  1  0.83063851  0.64916463  0.01954564  1
  H  H1260  1  0.68558694  0.51239543  0.12369141  1
  C  C1261  1  0.93772430  0.50949114  0.37562552  1
  C  C1262  1  0.98761302  0.61786612  0.00632452  1
  C  C1263  1  0.53880728  0.73188196  0.49154319  1
  C  C1264  1  0.97769014  0.74865430  0.32789017  1
  C  C1265  1  0.65857939  0.52722643  0.00329936  1
  N  N1266  1  0.56196330  0.57349741  0.48387295  1
  H  H1267  1  0.52549829  0.56058459  0.48222030  1
  H  H1268  1  0.88772681  0.57086832  0.48165347  1
  H  H1269  1  0.54999162  0.59930163  0.49119013  1
  N  N1270  1  0.87774263  0.59825593  0.49207973  1
  C  C1271  1  0.93728623  0.64116001  0.00127675  1
  N  N1272  1  0.71735543  0.53344502  0.68192995  1
  C  C1273  1  0.63209864  0.55644128  0.73570058  1
  N  N1274  1  0.90096910  0.59834650  0.73012775  1
  C  C1275  1  0.96360080  0.70098308  0.65930012  1
  N  N1276  1  0.84985843  0.61918125  0.66819000  1
  C  C1277  1  0.90902509  0.64621349  0.93261406  1
  C  C1278  1  0.84333212  0.56446684  0.89683383  1
  H  H1279  1  0.87348892  0.66486071  0.92293144  1
  C  C1280  1  0.98365689  0.60805457  0.86560891  1
  C  C1281  1  0.50516669  0.61968735  0.80947093  1
  H  H1282  1  0.86555561  0.58931608  0.91772977  1
  C  C1283  1  0.56874555  0.57254707  0.74940492  1
  H  H1284  1  0.72477868  0.70893696  0.95342534  1
  N  N1285  1  0.66606954  0.62644517  0.65449611  1
  H  H1286  1  0.67596237  0.64116985  0.50935981  1
  H  H1287  1  0.59927331  0.61059524  0.83511968  1
  C  C1288  1  0.79760142  0.56502254  0.84183913  1
  Cu  Cu1289  1  0.86791612  0.50638184  0.50473789  1
  H  H1290  1  0.52776526  0.51550227  0.92398974  1
  C  C1291  1  0.71798173  0.72002011  0.69548108  1
  H  H1292  1  0.50739022  0.62559243  0.94032376  1
  H  H1293  1  0.78848273  0.71319737  0.91253859  1
  Cu  Cu1294  1  0.95973626  0.57607561  0.66630610  1
  H  H1295  1  0.64442210  0.61146458  0.69575782  1
  C  C1296  1  0.72062758  0.53937655  0.75728039  1
  H  H1297  1  0.92351285  0.50185374  0.97315793  1
  H  H1298  1  0.60867150  0.70643906  0.76653523  1
  N  N1299  1  0.75120478  0.72774248  0.92338735  1
  C  C1300  1  0.89802956  0.62524922  0.78989382  1
  C  C1301  1  0.56272997  0.51426682  0.96279799  1
  H  H1302  1  0.50924633  0.70776445  0.64808090  1
  H  H1303  1  0.52741820  0.53113683  0.67285255  1
  N  N1304  1  0.85917933  0.65268448  0.77976169  1
  H  H1305  1  0.76513702  0.69412172  0.78465598  1
  C  C1306  1  0.57766360  0.66658515  0.65481125  1
  C  C1307  1  0.56253286  0.60096977  0.79890077  1
  Cu  Cu1308  1  0.94795684  0.50887975  0.64830703  1
  N  N1309  1  0.64180432  0.66139800  0.88145775  1
  C  C1310  1  0.83587601  0.64833277  0.70719656  1
  C  C1311  1  0.61363635  0.53293249  0.94826237  1
  H  H1312  1  0.89020855  0.70888643  0.76924549  1
  H  H1313  1  0.50292549  0.65090199  0.51989442  1
  Cu  Cu1314  1  0.87938125  0.54993706  0.74436293  1
  C  C1315  1  0.52084118  0.55755815  0.70705781  1
  N  N1316  1  0.67100204  0.55240539  0.79451331  1
  Cu  Cu1317  1  0.76115709  0.51973804  0.58998216  1
  N  N1318  1  0.94609011  0.50435571  0.53943049  1
  C  C1319  1  0.85741167  0.52877303  0.92012298  1
  H  H1320  1  0.69802240  0.63902289  0.69026921  1
  H  H1321  1  0.84244817  0.74994522  0.67929702  1
  C  C1322  1  0.62391955  0.64955606  0.61488390  1
  C  C1323  1  0.75748706  0.69493580  0.72451055  1
  H  H1324  1  0.50824907  0.64906964  0.81021027  1
  H  H1325  1  0.95255974  0.70729925  0.88444867  1
  H  H1326  1  0.93239231  0.64434961  0.65371711  1
  H  H1327  1  0.65976178  0.65288595  0.82910585  1
  H  H1328  1  0.50699778  0.69538905  0.75351506  1
  Cu  Cu1329  1  0.71150800  0.59246211  0.58977895  1
  C  C1330  1  0.78835225  0.67664430  0.59061066  1
  N  N1331  1  0.64942546  0.54830458  0.66395379  1
  C  C1332  1  0.96721214  0.66316209  0.67136868  1
  C  C1333  1  0.74338346  0.69920022  0.56411583  1
  C  C1334  1  0.61161261  0.69322717  0.89249987  1
  C  C1335  1  0.56473478  0.70201173  0.54250919  1
  C  C1336  1  0.92987939  0.62676871  0.86427108  1
  C  C1337  1  0.79227864  0.67446689  0.67148825  1
  C  C1338  1  0.64257645  0.65802007  0.53943702  1
  Cu  Cu1339  1  0.63142595  0.54415069  0.56142169  1
  N  N1340  1  0.66945199  0.74857714  0.58728045  1
  C  C1341  1  0.54693521  0.69399924  0.62014994  1
  H  H1342  1  0.78140801  0.59245925  0.82175645  1
  H  H1343  1  0.62022308  0.55116771  0.90017422  1
  Cu  Cu1344  1  0.82023420  0.59589084  0.58069728  1
  H  H1345  1  0.92830015  0.71375288  0.62942819  1
  Cl  Cl1346  1  0.85169012  0.51547306  0.62700998  1
  H  H1347  1  0.66088936  0.65194027  0.92869530  1
  C  C1348  1  0.77235348  0.53258951  0.81270444  1
  C  C1349  1  0.59449353  0.71485747  0.82689135  1
  C  C1350  1  0.71316630  0.72193489  0.61514559  1
  H  H1351  1  0.56955674  0.65967920  0.71463630  1
  C  C1352  1  0.93099297  0.65398409  0.50498630  1
  C  C1353  1  0.56076156  0.74496664  0.84099168  1
  H  H1354  1  0.81787414  0.66159067  0.55213802  1
  H  H1355  1  0.88811498  0.66291231  0.52450809  1
  C  C1356  1  0.93222389  0.73254285  0.86815953  1
  H  H1357  1  0.69142282  0.73767617  0.73728918  1
  H  H1358  1  0.73392137  0.54304245  0.93581845  1
  N  N1359  1  0.90185069  0.52578217  0.98124528  1
  H  H1360  1  0.63230908  0.73557184  0.60420257  1
  C  C1361  1  0.57205759  0.73857339  0.98306662  1
  C  C1362  1  0.60156420  0.70616225  0.96956394  1
  C  C1363  1  0.90076356  0.73466487  0.80126634  1
  N  N1364  1  0.67981502  0.50830785  0.51901622  1
  N  N1365  1  0.71328010  0.54070524  0.98959168  1
  Cl  Cl1366  1  0.76398773  0.56448643  0.50238727  1
  H  H1367  1  0.98323396  0.70380340  0.51836929  1
  C  C1368  1  0.61035418  0.68542805  0.50033533  1
  H  H1369  1  0.73349915  0.70142607  0.50362808  1
  N  N1370  1  0.95849134  0.99467052  0.24453808  1
  Cu  Cu1371  1  0.72777994  0.79205413  0.37199577  1
  Cu  Cu1372  1  0.56712544  0.81849263  0.35111862  1
  C  C1373  1  0.62433282  0.87895119  0.15500016  1
  C  C1374  1  0.82148202  0.97675501  0.42279377  1
  C  C1375  1  0.57328970  0.93648477  0.13237589  1
  H  H1376  1  0.78901209  0.81830320  0.06199513  1
  C  C1377  1  0.88244140  0.77848394  0.32815622  1
  H  H1378  1  0.52188709  0.97181972  0.02029513  1
  C  C1379  1  0.75743440  0.92657767  0.40442392  1
  C  C1380  1  0.59636446  0.92456046  0.44071046  1
  C  C1381  1  0.86465651  0.92224041  0.19102196  1
  H  H1382  1  0.92285880  0.88155132  0.47527339  1
  C  C1383  1  0.50904499  0.75139641  0.18872944  1
  C  C1384  1  0.59536954  0.86348551  0.09022550  1
  N  N1385  1  0.72764058  0.90109408  0.35129000  1
  H  H1386  1  0.79648499  0.95671913  0.31138045  1
  C  C1387  1  0.60530371  0.76900450  0.23752563  1
  C  C1388  1  0.80102833  0.79269207  0.09436155  1
  H  H1389  1  0.86470470  0.77331280  0.01467443  1
  H  H1390  1  0.85439265  0.92887023  0.03036284  1
  N  N1391  1  0.51495582  0.94388344  0.01320873  1
  C  C1392  1  0.90560166  0.91201846  0.24407837  1
  C  C1393  1  0.95281436  0.78583837  0.43949440  1
  H  H1394  1  0.86662575  0.94715944  0.15705359  1
  Cu  Cu1395  1  0.65755740  0.87095058  0.36697208  1
  C  C1396  1  0.82049097  0.89358541  0.18574887  1
  C  C1397  1  0.55485077  0.77822085  0.20124917  1
  C  C1398  1  0.76898182  0.78381434  0.16284343  1
  H  H1399  1  0.55019727  0.80511818  0.18129688  1
  N  N1400  1  0.67159082  0.84845842  0.27050939  1
  N  N1401  1  0.77588142  0.89435940  0.13383031  1
  H  H1402  1  0.63477561  0.92839701  0.22391489  1
  H  H1403  1  0.88818533  0.87176800  0.08818493  1
  C  C1404  1  0.83943228  0.95806397  0.03100040  1
  N  N1405  1  0.71547340  0.81261438  0.27423893  1
  C  C1406  1  0.63376988  0.95610129  0.44274504  1
  H  H1407  1  0.90652878  0.86472596  0.32629737  1
  C  C1408  1  0.84317721  0.76807601  0.06972806  1
  H  H1409  1  0.80966393  0.99092191  0.16278552  1
  C  C1410  1  0.66260778  0.85130733  0.19699592  1
  Cu  Cu1411  1  0.57323567  0.84155241  0.48990917  1
  H  H1412  1  0.66343585  0.96476938  0.49113965  1
  H  H1413  1  0.60762203  0.83538397  0.06736363  1
  Cl  Cl1414  1  0.65168955  0.81907642  0.42725965  1
  N  N1415  1  0.79278195  0.81171902  0.43826833  1
  C  C1416  1  0.89855717  0.79165583  0.40237412  1
  H  H1417  1  0.63965683  0.78984845  0.24831400  1
  H  H1418  1  0.56120714  0.96441528  0.15316980  1
  C  C1419  1  0.83553206  0.86602765  0.24078975  1
  C  C1420  1  0.61329458  0.91512528  0.17622847  1
  C  C1421  1  0.72478014  0.80859353  0.19950001  1
  H  H1422  1  0.74301377  0.87577743  0.13357181  1
  N  N1423  1  0.69448817  0.83074475  0.15018302  1
  H  H1424  1  0.80910768  0.84226659  0.25392306  1
  C  C1425  1  0.56009933  0.88470635  0.04423861  1
  C  C1426  1  0.79233769  0.95482191  0.37167140  1
  N  N1427  1  0.53210257  0.78144737  0.41105932  1
  H  H1428  1  0.84033796  0.78137398  0.29955875  1
  H  H1429  1  0.71336908  0.91851700  0.30542948  1
  H  H1430  1  0.56922721  0.96091784  0.26847862  1
  N  N1431  1  0.59665565  0.89440226  0.49552964  1
  C  C1432  1  0.54994845  0.92257057  0.06394329  1
  C  C1433  1  0.58727381  0.95220005  0.32647680  1
  C  C1434  1  0.56691460  0.92333291  0.36808302  1
  N  N1435  1  0.98126838  0.78317147  0.05509090  1
  H  H1436  1  0.88661521  0.92351597  0.46956123  1
  H  H1437  1  0.91818981  0.98342164  0.06535074  1
  C  C1438  1  0.98467540  0.90569251  0.04807207  1
  H  H1439  1  0.75230288  0.88251377  0.32142940  1
  N  N1440  1  0.92164159  0.90922101  0.49308443  1
  C  C1441  1  0.62565785  0.97421666  0.37243440  1
  H  H1442  1  0.76525417  0.91137717  0.09164990  1
  H  H1443  1  0.53159355  0.90552473  0.34828133  1
  H  H1444  1  0.53974650  0.87139627  0.21428057  1
  Cu  Cu1445  1  0.65460395  0.76916744  0.48322527  1
  C  C1446  1  0.88353310  0.87881508  0.27862744  1
  C  C1447  1  0.85434575  0.81017460  0.45000151  1
  H  H1448  1  0.96464691  0.91291170  0.38448734  1
  H  H1449  1  0.93980953  0.92913827  0.26619077  1
  H  H1450  1  0.98474853  0.89952718  0.11064053  1
  H  H1451  1  0.70544917  0.99095882  0.15261052  1
  N  N1452  1  0.89650746  0.86967166  0.02975304  1
  C  C1453  1  0.87606491  0.98808506  0.04497308  1
  C  C1454  1  0.92330630  0.75737468  0.29150146  1
  N  N1455  1  0.57559282  0.75585911  0.46281951  1
  H  H1456  1  0.85381668  0.86860724  0.00588127  1
  C  C1457  1  0.75752940  0.92052225  0.48488870  1
  C  C1458  1  0.99179176  0.82440981  0.23427910  1
  C  C1459  1  0.51356273  0.86997273  0.26738560  1
  C  C1460  1  0.98957645  0.76173200  0.40305283  1
  H  H1461  1  0.96816760  0.79804357  0.21058477  1
  C  C1462  1  0.77681031  0.75015998  0.20431096  1
  H  H1463  1  0.84712077  0.99933217  0.39913209  1
  N  N1464  1  0.90751535  0.99977247  0.21238287  1
  H  H1465  1  0.96105006  0.79539095  0.49732722  1
  N  N1466  1  0.77276716  0.82970527  0.49945555  1
  H  H1467  1  0.52023793  0.77500834  0.63014638  1
  N  N1468  1  0.68011091  0.79171618  0.78152831  1
  H  H1469  1  0.94195561  0.82259721  0.92378361  1
  C  C1470  1  0.64111288  0.84368869  0.70359225  1
  C  C1471  1  0.99845556  0.95397043  0.64825978  1
  C  C1472  1  0.54587115  0.83140830  0.64031004  1
  H  H1473  1  0.88967941  0.97558348  0.76182807  1
  H  H1474  1  0.85515762  0.79160576  0.66767116  1
  H  H1475  1  0.73527441  0.82885647  0.67524618  1
  H  H1476  1  0.70054833  0.92998397  0.66170054  1
  H  H1477  1  0.91382622  0.85721887  0.78241456  1
  C  C1478  1  0.69166774  0.81759033  0.97294643  1
  H  H1479  1  0.66837821  0.76004510  0.98937231  1
  H  H1480  1  0.63071948  0.89629833  0.53201201  1
  C  C1481  1  0.88613588  0.77015143  0.77510548  1
  C  C1482  1  0.50168634  0.78456544  0.93528377  1
  H  H1483  1  0.73528491  0.89608238  0.50734676  1
  C  C1484  1  0.76844167  0.85050090  0.68194804  1
  C  C1485  1  0.93409606  0.79934633  0.88802909  1
  N  N1486  1  0.69522205  0.93905180  0.94032781  1
  C  C1487  1  0.59425349  0.78091696  0.70328212  1
  C  C1488  1  0.93924662  0.90087492  0.91961636  1
  H  H1489  1  0.92943801  0.97768009  0.57730785  1
  H  H1490  1  0.56498169  0.90520102  0.53267906  1
  N  N1491  1  0.55804742  0.93471124  0.71077233  1
  H  H1492  1  0.66296041  0.77987147  0.82939242  1
  H  H1493  1  0.82093335  0.84598723  0.88675683  1
  C  C1494  1  0.95642440  0.95412921  0.59195278  1
  Cu  Cu1495  1  0.62150353  0.93384604  0.78429620  1
  C  C1496  1  0.74979325  0.93487596  0.97035411  1
  C  C1497  1  0.85470095  0.88504143  0.63219908  1
  C  C1498  1  0.81128636  0.85717192  0.62430051  1
  H  H1499  1  0.82271184  0.95012989  0.81769936  1
  H  H1500  1  0.67806700  0.86188326  0.71503224  1
  C  C1501  1  0.58060771  0.95732575  0.66411859  1
  C  C1502  1  0.78769018  0.82644405  0.91187500  1
  C  C1503  1  0.90742396  0.80259820  0.81478718  1
  C  C1504  1  0.78415968  0.94406936  0.53647463  1
  C  C1505  1  0.85458422  0.90644226  0.69696184  1
  C  C1506  1  0.63833493  0.97470603  0.68443179  1
  C  C1507  1  0.74900299  0.76536689  0.92886693  1
  C  C1508  1  0.73806329  0.97486960  0.72160590  1
  N  N1509  1  0.68325172  0.89977108  0.92154957  1
  C  C1510  1  0.73158801  0.88156090  0.94651375  1
  C  C1511  1  0.73800469  0.84052407  0.94915644  1
  C  C1512  1  0.97566870  0.75969981  0.99170896  1
  C  C1513  1  0.55008643  0.75893871  0.91784981  1
  N  N1514  1  0.96847084  0.78279255  0.63405004  1
  N  N1515  1  0.81954299  0.92175653  0.82068761  1
  H  H1516  1  0.86405912  0.83522642  0.74248210  1
  H  H1517  1  0.70588956  0.80944443  0.80613799  1
  Cu  Cu1518  1  0.61163164  0.88789743  0.88443316  1
  N  N1519  1  0.53695670  0.87673542  0.83260355  1
  H  H1520  1  0.67011915  0.77232811  0.61849565  1
  H  H1521  1  0.59371003  0.88267404  0.64043973  1
  Cu  Cu1522  1  0.55569625  0.99336175  0.80658738  1
  H  H1523  1  0.78525490  0.91855174  0.85864445  1
  C  C1524  1  0.63867615  0.80567807  0.72935199  1
  N  N1525  1  0.55237699  0.96741359  0.59832024  1
  H  H1526  1  0.88759591  0.89023159  0.58625160  1
  H  H1527  1  0.59798192  0.75175695  0.71827547  1
  Cu  Cu1528  1  0.63997576  0.97050527  0.90335970  1
  C  C1529  1  0.76818632  0.87360588  0.74580294  1
  C  C1530  1  0.81775942  0.83807936  0.54740598  1
  C  C1531  1  0.79061699  0.78932355  0.89814900  1
  H  H1532  1  0.78019499  0.96075111  0.72277348  1
  N  N1533  1  0.88474665  0.83643029  0.79171019  1
  C  C1534  1  0.54766400  0.79343146  0.65925648  1
  N  N1535  1  0.85117121  0.99924109  0.62588405  1
  H  H1536  1  0.82819069  0.78061890  0.86206206  1
  H  H1537  1  0.74232852  0.86769790  0.79721932  1
  H  H1538  1  0.65327626  0.83032102  0.99863746  1
  C  C1539  1  0.78428676  0.96676903  0.99809715  1
  H  H1540  1  0.88971468  0.92650115  0.70690211  1
  C  C1541  1  0.59363387  0.85442471  0.66020900  1
  C  C1542  1  0.69265327  0.95662144  0.68514378  1
  N  N1543  1  0.77404584  0.90228786  0.97503920  1
  C  C1544  1  0.81002856  0.90155532  0.75318073  1
  H  H1545  1  0.97998855  0.93129223  0.82830929  1
  H  H1546  1  0.78238622  0.93983789  0.59930428  1
  C  C1547  1  0.94608932  0.76468649  0.91477599  1
  H  H1548  1  0.53922172  0.75689901  0.79175611  1
  H  H1549  1  0.90458570  0.88836206  0.88216968  1
  N  N1550  1  0.98420745  0.81771505  0.63948869  1
  C  C1551  1  0.69797922  0.78029943  0.96519064  1
  Cu  Cu1552  1  0.52044408  0.83453749  0.77197135  1
  H  H1553  1  0.93410935  0.98544152  0.88894601  1
  Cu  Cu1554  1  0.53639236  0.93825817  0.90029994  1
  N  N1555  1  0.85219714  0.77205031  0.70942909  1
  C  C1556  1  0.95655699  0.91932162  0.55333138  1
  N  N1557  1  0.87021590  0.82765226  0.51626382  1
  C  C1558  1  0.97780291  0.92721989  0.89270985  1
  C  C1559  1  0.99463785  0.89705833  0.59919662  1
  H  H1560  1  0.99890754  0.86723361  0.59673314  1
  H  H1561  1  0.54629415  0.87650218  0.98731554  1
  C  C1562  1  0.93854557  0.89246146  0.99833538  1
  C  C1563  1  0.81307685  0.97485959  0.50501130  1
