# generated using pymatgen
data_Cu17H144C168(N30Cl)2
_symmetry_space_group_name_H-M   'P 1'
_cell_length_a   23.88277046
_cell_length_b   22.50866425
_cell_length_c   27.86427207
_cell_angle_alpha   90.00000000
_cell_angle_beta   90.00000000
_cell_angle_gamma   90.00000000
_symmetry_Int_Tables_number   1
_chemical_formula_structural   Cu17H144C168(N30Cl)2
_chemical_formula_sum   'Cu68 H576 C672 N240 Cl8'
_cell_volume   14978.97616216
_cell_formula_units_Z   4
loop_
 _symmetry_equiv_pos_site_id
 _symmetry_equiv_pos_as_xyz
  1  'x, y, z'
loop_
 _atom_site_type_symbol
 _atom_site_label
 _atom_site_symmetry_multiplicity
 _atom_site_fract_x
 _atom_site_fract_y
 _atom_site_fract_z
 _atom_site_occupancy
  C  C0  1  0.13808608  0.20244805  0.07473717  1
  H  H1  1  0.15469005  0.15977335  0.06239580  1
  H  H2  1  0.17868100  0.05078961  0.06558402  1
  C  C3  1  0.19711740  0.07820545  0.03967066  1
  N  N4  1  0.28688853  0.09585302  0.08582888  1
  C  C5  1  0.08183315  0.20938805  0.08760646  1
  N  N6  1  0.06078678  0.02637165  0.13044329  1
  H  H7  1  0.31979424  0.08802206  0.20374136  1
  H  H8  1  0.27961345  0.05914304  0.10661212  1
  C  C9  1  0.31142790  0.04684701  0.18300033  1
  C  C10  1  0.07836808  0.13711991  0.18246162  1
  C  C11  1  0.13326717  0.13794393  0.16479221  1
  H  H12  1  0.04382335  0.11472701  0.16426789  1
  H  H13  1  0.14120322  0.12066867  0.12760476  1
  C  C14  1  0.25171735  0.10336918  0.04498818  1
  H  H15  1  0.32858880  0.09295493  0.08139966  1
  N  N16  1  0.23460049  0.16528806  0.17199397  1
  C  C17  1  0.18058032  0.16356472  0.19075982  1
  N  N18  1  0.44544785  0.06205603  0.18151144  1
  C  C19  1  0.35254089  0.02182168  0.15030852  1
  C  C20  1  0.41196879  0.04031866  0.14496765  1
  N  N21  1  0.44435721  0.02691037  0.10450532  1
  N  N22  1  0.04625156  0.16320362  0.08039583  1
  C  C23  1  0.06637080  0.16836045  0.22591381  1
  H  H24  1  0.24596064  0.14930264  0.13805479  1
  C  C25  1  0.25947950  0.02098759  0.18831469  1
  H  H26  1  0.22852603  0.04409228  0.20959223  1
  H  H27  1  0.42156026  0.20903137  0.11269562  1
  H  H28  1  0.36132059  0.03171990  0.02704506  1
  H  H29  1  0.44960283  0.14665263  0.13256093  1
  N  N30  1  0.45422551  0.19236929  0.13125183  1
  C  C31  1  0.27560467  0.14297937  0.00966474  1
  H  H32  1  0.05569875  0.11698316  0.08697229  1
  H  H33  1  0.45787953  0.05453978  0.03925904  1
  C  C34  1  0.00918068  0.03251719  0.10784002  1
  N  N35  1  0.01328807  0.01902138  0.06027152  1
  N  N36  1  0.49672848  0.04076624  0.11571626  1
  H  H37  1  0.31810342  0.15898367  0.01620004  1
  N  N38  1  0.45800383  0.08482835  0.01127325  1
  C  C39  1  0.49790334  0.06224526  0.16293290  1
  H  H40  1  0.00544023  0.16678797  0.09041809  1
  C  C41  1  0.00422685  0.17622936  0.23946802  1
  H  H42  1  0.26877691  0.18349415  0.18698686  1
  H  H43  1  0.21764616  0.24886933  0.05858166  1
  N  N44  1  0.09689830  0.00955624  0.09668246  1
  H  H45  1  0.49994992  0.08242913  0.00341154  1
  H  H46  1  0.41628098  0.19166457  0.21711878  1
  H  H47  1  0.39021903  0.09717597  0.24026315  1
  C  C48  1  0.16685716  0.18724095  0.23599437  1
  C  C49  1  0.38900410  0.18654309  0.24939974  1
  C  C50  1  0.00470437  0.24621026  0.00453092  1
  N  N51  1  0.40234762  0.24871917  0.05392583  1
  C  C52  1  0.06731647  0.00287701  0.05421065  1
  C  C53  1  0.37290845  0.00100707  0.38867988  1
  C  C54  1  0.49548016  0.00235301  0.31599883  1
  H  H55  1  0.48913658  0.08276807  0.35947270  1
  N  N56  1  0.00728064  0.01679976  0.30887490  1
  C  C57  1  0.37107925  0.06181995  0.39772313  1
  C  C58  1  0.31539251  0.24898755  0.48500321  1
  H  H59  1  0.49249035  0.07673438  0.46324176  1
  C  C60  1  0.30959239  0.05739311  0.30786736  1
  H  H61  1  0.21829717  0.00996238  0.43378269  1
  N  N62  1  0.26727288  0.04634441  0.34018191  1
  H  H63  1  0.16926484  0.13222917  0.32321656  1
  H  H64  1  0.37041545  0.17307012  0.42922077  1
  H  H65  1  0.10187376  0.20665913  0.28853940  1
  N  N66  1  0.23618015  0.13406654  0.48190953  1
  C  C67  1  0.10075669  0.20831459  0.49557764  1
  C  C68  1  0.36901676  0.23531905  0.27795245  1
  C  C69  1  0.45941016  0.05533173  0.44177393  1
  C  C70  1  0.31190663  0.16791673  0.32587467  1
  C  C71  1  0.09252860  0.08059765  0.31023550  1
  C  C72  1  0.41650305  0.09139559  0.42252256  1
  H  H73  1  0.20093936  0.20265320  0.25891899  1
  C  C74  1  0.33150019  0.11868921  0.29864683  1
  N  N75  1  0.20018229  0.09607721  0.46427114  1
  C  C76  1  0.07925842  0.18994442  0.45124605  1
  C  C77  1  0.14006934  0.09103971  0.38725315  1
  C  C78  1  0.11284681  0.19059065  0.25330532  1
  H  H79  1  0.08927333  0.08863314  0.27194787  1
  H  H80  1  0.42910132  0.17394800  0.45801658  1
  H  H81  1  0.44765986  0.06650699  0.28492753  1
  C  C82  1  0.37404841  0.12883343  0.26325591  1
  C  C83  1  0.18020081  0.12058375  0.42087111  1
  C  C84  1  0.33115968  0.22516974  0.31732470  1
  H  H85  1  0.33702011  0.09232921  0.38650824  1
  C  C86  1  0.27381872  0.23720907  0.44836677  1
  H  H87  1  0.27733483  0.15952606  0.35224121  1
  C  C88  1  0.13547584  0.10244402  0.33652260  1
  H  H89  1  0.11176883  0.03041700  0.44352957  1
  N  N90  1  0.20630845  0.17194383  0.41097994  1
  C  C91  1  0.24063982  0.18168988  0.44751346  1
  H  H92  1  0.41444765  0.03217934  0.32294581  1
  H  H93  1  0.06146040  0.14649530  0.44704614  1
  C  C94  1  0.05505422  0.03647712  0.33008100  1
  Cu  Cu95  1  0.01103135  0.13960430  0.34413390  1
  N  N96  1  0.44141146  0.02289524  0.29447397  1
  N  N97  1  0.40563714  0.15071903  0.43322384  1
  N  N98  1  0.32791093  0.00913934  0.28335241  1
  C  C99  1  0.06316394  0.01626394  0.38001216  1
  C  C100  1  0.10397100  0.04535890  0.40556994  1
  H  H101  1  0.01860812  0.24435360  0.37006035  1
  N  N102  1  0.04874416  0.21274107  0.37032054  1
  C  C103  1  0.08299164  0.22897620  0.41178689  1
  H  H104  1  0.07021734  0.22106775  0.33864464  1
  C  C105  1  0.20589930  0.11057347  0.63306608  1
  C  C106  1  0.26944953  0.11309100  0.62500711  1
  N  N107  1  0.30608290  0.15883272  0.61190188  1
  C  C108  1  0.35056863  0.08172200  0.64172175  1
  N  N109  1  0.35694124  0.13698841  0.62087103  1
  H  H110  1  0.19288322  0.20041682  0.60592115  1
  C  C111  1  0.17493344  0.16175580  0.62277037  1
  N  N112  1  0.17138895  0.21963744  0.72214294  1
  C  C113  1  0.11742209  0.16348363  0.63484263  1
  C  C114  1  0.09321524  0.11337090  0.65742498  1
  C  C115  1  0.12481094  0.06101256  0.67090447  1
  N  N116  1  0.29566109  0.06616656  0.64148512  1
  C  C117  1  0.18078682  0.05973503  0.65567596  1
  C  C118  1  0.44769246  0.06879538  0.66561428  1
  C  C119  1  0.45318150  0.10929719  0.55851606  1
  H  H120  1  0.40592045  0.10836494  0.56109232  1
  C  C121  1  0.39541696  0.03971705  0.65418575  1
  H  H122  1  0.45170462  0.11697496  0.66073866  1
  H  H123  1  0.17909237  0.22677501  0.68660684  1
  C  C124  1  0.47859687  0.16275884  0.53857080  1
  H  H125  1  0.09151738  0.20200677  0.62247655  1
  H  H126  1  0.40928336  0.21195551  0.55349500  1
  N  N127  1  0.44123672  0.20922946  0.52882669  1
  H  H128  1  0.19031498  0.03945101  0.57379060  1
  Cu  Cu129  1  0.11883460  0.15187062  0.73141804  1
  N  N130  1  0.03504766  0.12189947  0.67171464  1
  N  N131  1  0.47160582  0.21824832  0.66172798  1
  H  H132  1  0.10539992  0.01980739  0.68851673  1
  Cu  Cu133  1  0.01157675  0.19730426  0.70223910  1
  H  H134  1  0.20359778  0.01732126  0.66508488  1
  H  H135  1  0.42687702  0.01554016  0.74251201  1
  C  C136  1  0.48511707  0.06007338  0.56944375  1
  H  H137  1  0.32062307  0.12157846  0.73643797  1
  C  C138  1  0.49399746  0.03412470  0.68082709  1
  H  H139  1  0.46344444  0.02023433  0.58027234  1
  H  H140  1  0.09990845  0.17909053  0.52679974  1
  C  C141  1  0.33600513  0.24113153  0.73870010  1
  H  H142  1  0.27183675  0.22791799  0.67963014  1
  C  C143  1  0.30001204  0.23304816  0.70928033  1
  Cu  Cu144  1  0.23033049  0.17065197  0.74868320  1
  H  H145  1  0.02155610  0.08596645  0.69204659  1
  H  H146  1  0.00952118  0.11063492  0.64091029  1
  H  H147  1  0.46853764  0.23562172  0.62810723  1
  H  H148  1  0.43538802  0.23033713  0.67887287  1
  H  H149  1  0.05917955  0.24157136  0.57292111  1
  H  H150  1  0.46211780  0.24994260  0.52669612  1
  C  C151  1  0.01624373  0.23376507  0.58728148  1
  H  H152  1  0.32301741  0.21543483  0.51312960  1
  H  H153  1  0.25662862  0.04472568  0.50410783  1
  N  N154  1  0.26831877  0.00248353  0.51150001  1
  H  H155  1  0.31921488  0.16570568  0.78148266  1
  C  C156  1  0.37849254  0.10779226  0.89691357  1
  H  H157  1  0.47168619  0.20511779  0.75666695  1
  N  N158  1  0.05176863  0.20373033  0.76185576  1
  C  C159  1  0.47470140  0.23562743  0.98910906  1
  H  H160  1  0.02505083  0.20916976  0.98647787  1
  N  N161  1  0.14910531  0.21877479  0.92805910  1
  H  H162  1  0.25886981  0.19989455  0.94713222  1
  H  H163  1  0.33437796  0.09657095  0.78751134  1
  C  C164  1  0.15596294  0.07163809  0.78064883  1
  H  H165  1  0.28141384  0.02956678  0.97483085  1
  H  H166  1  0.38148636  0.12652705  0.86116364  1
  C  C167  1  0.43243925  0.00908898  0.78263916  1
  N  N168  1  0.24537179  0.22732725  0.85591010  1
  Cu  Cu169  1  0.24538920  0.06220485  0.78301849  1
  C  C170  1  0.03458558  0.03062389  0.78192803  1
  C  C171  1  0.47928230  0.02980582  0.80756930  1
  C  C172  1  0.31944265  0.05222155  0.96167877  1
  C  C173  1  0.11743907  0.23677423  0.89159945  1
  C  C174  1  0.41671397  0.08069981  0.97733588  1
  N  N175  1  0.17201050  0.12061820  0.78314573  1
  C  C176  1  0.04786930  0.14607039  0.76928691  1
  C  C177  1  0.48058488  0.01485629  0.85734042  1
  N  N178  1  0.09331599  0.21649020  0.85443673  1
  C  C179  1  0.42179181  0.10870127  0.93060432  1
  C  C180  1  0.16501825  0.09610104  0.99769331  1
  N  N181  1  0.14357590  0.11820687  0.89109520  1
  H  H182  1  0.12495782  0.08061843  0.98870394  1
  N  N183  1  0.24232903  0.05589460  0.85615702  1
  Cu  Cu184  1  0.16918391  0.03941435  0.88640966  1
  C  C185  1  0.04389002  0.09177364  0.77602785  1
  Cu  Cu186  1  0.21751742  0.14639981  0.84339822  1
  H  H187  1  0.21663308  0.24027596  0.88277110  1
  C  C188  1  0.13783459  0.01257382  0.77865837  1
  H  H189  1  0.28656969  0.21631045  0.86949331  1
  C  C190  1  0.18796387  0.14129203  0.96955633  1
  N  N191  1  0.38388637  0.22969297  0.81637892  1
  N  N192  1  0.30397284  0.12492998  0.77150828  1
  C  C193  1  0.15350742  0.15880379  0.92330640  1
  C  C194  1  0.28097739  0.06463320  0.88160146  1
  C  C195  1  0.32889203  0.07472392  0.91329799  1
  C  C196  1  0.24234150  0.16689681  0.97260375  1
  Cu  Cu197  1  0.10421039  0.13662228  0.83682209  1
  H  H198  1  0.46536644  0.12739488  0.92427018  1
  C  C199  1  0.36544465  0.05300983  0.99149042  1
  Cu  Cu200  1  0.20750812  0.43493925  0.13644044  1
  H  H201  1  0.08704727  0.36782812  0.10068901  1
  C  C202  1  0.04437840  0.29980365  0.19302364  1
  N  N203  1  0.20570014  0.40549265  0.07578034  1
  C  C204  1  0.10506343  0.32259215  0.10707155  1
  Cu  Cu205  1  0.30958466  0.41239029  0.08345420  1
  C  C206  1  0.18317172  0.35925102  0.05443403  1
  C  C207  1  0.15468019  0.30842688  0.07782515  1
  C  C208  1  0.08956103  0.28759107  0.15751210  1
  C  C209  1  0.46432610  0.42180751  0.01823355  1
  C  C210  1  0.06537360  0.26751744  0.10808332  1
  H  H211  1  0.39548490  0.36765812  0.10292126  1
  N  N212  1  0.39519644  0.41218326  0.09231094  1
  C  C213  1  0.42828762  0.41669537  0.05686772  1
  H  H214  1  0.45566927  0.37353596  0.17139140  1
  C  C215  1  0.42345499  0.39862209  0.19265877  1
  C  C216  1  0.36567793  0.38532425  0.19160796  1
  H  H217  1  0.04295406  0.27368092  0.22873013  1
  H  H218  1  0.34779665  0.34904538  0.16849649  1
  N  N219  1  0.23978235  0.43661549  0.02709052  1
  C  C220  1  0.29535588  0.29159651  0.13618258  1
  C  C221  1  0.34941857  0.27188718  0.05428214  1
  H  H222  1  0.27251253  0.29750692  0.17046045  1
  C  C223  1  0.31914708  0.28426047  0.09870852  1
  C  C224  1  0.02385800  0.40535005  0.04295796  1
  H  H225  1  0.47149175  0.30575210  0.09967667  1
  Cu  Cu226  1  0.36392431  0.47417279  0.13772490  1
  N  N227  1  0.23708566  0.36853414  0.20402569  1
  C  C228  1  0.33118505  0.41936624  0.22244927  1
  C  C229  1  0.44334563  0.44117167  0.22815059  1
  H  H230  1  0.49149923  0.32515805  0.02006320  1
  H  H231  1  0.12421382  0.26163313  0.17259456  1
  C  C232  1  0.26931273  0.40987444  0.22977015  1
  N  N233  1  0.18696439  0.36737657  0.22431792  1
  H  H234  1  0.02015631  0.28016405  0.10091322  1
  H  H235  1  0.48229296  0.47559162  0.15840904  1
  Cu  Cu236  1  0.13901681  0.48797499  0.06310356  1
  C  C237  1  0.00757635  0.34727233  0.19496578  1
  N  N238  1  0.49785044  0.44038991  0.24340577  1
  C  C239  1  0.49719356  0.37000690  0.00482839  1
  C  C240  1  0.17500524  0.25000839  0.07076638  1
  N  N241  1  0.33429001  0.28924676  0.00727720  1
  C  C242  1  0.42025362  0.25615228  0.00835147  1
  H  H243  1  0.39493687  0.30649851  0.23041834  1
  N  N244  1  0.00999575  0.44822010  0.07913982  1
  C  C245  1  0.00704283  0.42063678  0.11952287  1
  C  C246  1  0.00416023  0.38958350  0.15532150  1
  N  N247  1  0.05741513  0.41964744  0.00834009  1
  N  N248  1  0.08587441  0.48212201  0.01224641  1
  C  C249  1  0.02968095  0.30102612  0.00947813  1
  N  N250  1  0.30428225  0.49725432  0.09833785  1
  N  N251  1  0.19430807  0.34831783  0.00412307  1
  C  C252  1  0.49955049  0.32376446  0.48259685  1
  C  C253  1  0.21523323  0.49211090  0.46210752  1
  N  N254  1  0.01496311  0.49156729  0.49900651  1
  H  H255  1  0.16030387  0.34208049  0.46344502  1
  H  H256  1  0.08398958  0.35626302  0.25106076  1
  N  N257  1  0.00360913  0.43419502  0.39107038  1
  C  C258  1  0.11963065  0.49313360  0.47732820  1
  H  H259  1  0.42050053  0.27931614  0.42299362  1
  H  H260  1  0.42682351  0.25800261  0.33180995  1
  N  N261  1  0.37526712  0.38895312  0.44596503  1
  Cu  Cu262  1  0.35167127  0.45357870  0.49735870  1
  H  H263  1  0.27681227  0.38225061  0.49762346  1
  C  C264  1  0.03772040  0.39436886  0.31110663  1
  C  C265  1  0.13707922  0.41576276  0.29405400  1
  C  C266  1  0.35099306  0.45961371  0.25948246  1
  C  C267  1  0.40635386  0.47487696  0.26059767  1
  H  H268  1  0.17616705  0.48700069  0.33997819  1
  H  H269  1  0.38265928  0.40825725  0.41110790  1
  C  C270  1  0.46062606  0.28169691  0.35158472  1
  H  H271  1  0.29116770  0.36107616  0.38182027  1
  C  C272  1  0.12753425  0.26474551  0.49907496  1
  C  C273  1  0.04382323  0.43263439  0.35210362  1
  C  C274  1  0.18679493  0.40591118  0.26233436  1
  H  H275  1  0.31320497  0.26228788  0.33863276  1
  C  C276  1  0.45677407  0.28862175  0.40201123  1
  C  C277  1  0.14005432  0.45844399  0.33276101  1
  H  H278  1  0.32432302  0.48377663  0.28491935  1
  H  H279  1  0.41296818  0.37048323  0.45402245  1
  H  H280  1  0.46941194  0.28934106  0.26383127  1
  N  N281  1  0.23892989  0.43395512  0.26572314  1
  C  C282  1  0.13309327  0.30301548  0.45885745  1
  C  C283  1  0.29251067  0.33016265  0.41161751  1
  C  C284  1  0.26123440  0.27717773  0.40938868  1
  C  C285  1  0.34372467  0.30229886  0.48601664  1
  H  H286  1  0.11189166  0.31488347  0.38325021  1
  H  H287  1  0.35886096  0.32786245  0.27617704  1
  C  C288  1  0.08544506  0.38793575  0.28228889  1
  H  H289  1  0.22819371  0.27236841  0.38040227  1
  C  C290  1  0.09251078  0.46917231  0.35984432  1
  H  H291  1  0.02549134  0.43862882  0.42543743  1
  C  C292  1  0.10824723  0.28604829  0.41519896  1
  C  C293  1  0.33466429  0.34195578  0.44626267  1
  N  N294  1  0.37664291  0.29237293  0.26243580  1
  C  C295  1  0.21911456  0.44564521  0.49631136  1
  C  C296  1  0.21383115  0.31519633  0.59920243  1
  C  C297  1  0.26840636  0.32135087  0.62456182  1
  C  C298  1  0.27587766  0.35507649  0.66875168  1
  C  C299  1  0.32938546  0.36888445  0.68320492  1
  C  C300  1  0.37835968  0.34506303  0.65720918  1
  H  H301  1  0.24070278  0.36980121  0.69007241  1
  H  H302  1  0.33272830  0.39612120  0.71569956  1
  N  N303  1  0.43208551  0.35208551  0.67684273  1
  H  H304  1  0.40549925  0.40370018  0.55673030  1
  N  N305  1  0.16062906  0.32277785  0.61756158  1
  H  H306  1  0.34202288  0.41213043  0.56931024  1
  N  N307  1  0.37795181  0.43683299  0.56292078  1
  Cu  Cu308  1  0.37688562  0.46682082  0.62650727  1
  H  H309  1  0.02655890  0.31116016  0.68665612  1
  H  H310  1  0.08257505  0.43084225  0.52963701  1
  C  C311  1  0.31421385  0.29667166  0.59911099  1
  C  C312  1  0.15452809  0.28579948  0.54673822  1
  C  C313  1  0.17237434  0.41835700  0.51787861  1
  H  H314  1  0.17835219  0.38121580  0.54350889  1
  N  N315  1  0.20885154  0.29657770  0.55204299  1
  C  C316  1  0.36809898  0.30485775  0.61955810  1
  N  N317  1  0.47172281  0.33674940  0.55658416  1
  H  H318  1  0.45940178  0.31553709  0.67255515  1
  C  C319  1  0.12970407  0.46356456  0.69996438  1
  H  H320  1  0.09552868  0.43532322  0.69168002  1
  N  N321  1  0.12354932  0.30058388  0.58580150  1
  H  H322  1  0.40492049  0.28803688  0.60082005  1
  H  H323  1  0.07130716  0.38351312  0.60054692  1
  C  C324  1  0.12031352  0.44139532  0.50751512  1
  N  N325  1  0.04506388  0.28116950  0.66405671  1
  H  H326  1  0.07146334  0.30721021  0.64329855  1
  N  N327  1  0.03031797  0.39173984  0.59084198  1
  H  H328  1  0.30574817  0.26564736  0.56990419  1
  C  C329  1  0.17500656  0.46616045  0.66979963  1
  H  H330  1  0.45887138  0.45512000  0.73753375  1
  H  H331  1  0.01721653  0.48323453  0.71558075  1
  H  H332  1  0.17384905  0.43814509  0.63867828  1
  H  H333  1  0.43231905  0.35430261  0.71389935  1
  H  H334  1  0.27205127  0.40940341  0.54885053  1
  C  C335  1  0.01864027  0.33148142  0.51689395  1
  N  N336  1  0.27342373  0.42374881  0.51411062  1
  H  H337  1  0.06396648  0.33422635  0.50983419  1
  H  H338  1  0.01158651  0.40062165  0.62347972  1
  C  C339  1  0.00111573  0.25715037  0.63385838  1
  C  C340  1  0.13240330  0.49559691  0.74452966  1
  N  N341  1  0.45395146  0.33809114  0.51139242  1
  H  H342  1  0.48889438  0.42093277  0.52100606  1
  Cu  Cu343  1  0.09964725  0.26257395  0.72500623  1
  H  H344  1  0.20920282  0.38790638  0.74955129  1
  H  H345  1  0.19134302  0.25634642  0.73608996  1
  H  H346  1  0.37353245  0.30928098  0.51371327  1
  C  C347  1  0.15049609  0.34419477  0.88242830  1
  N  N348  1  0.42425352  0.25740142  0.84138277  1
  H  H349  1  0.15695129  0.28065290  0.80975540  1
  C  C350  1  0.22728441  0.39759550  0.99487534  1
  C  C351  1  0.04565328  0.39108424  0.91352571  1
  N  N352  1  0.42918075  0.29255412  0.76641030  1
  H  H353  1  0.37008156  0.43705058  0.94529325  1
  H  H354  1  0.07041571  0.31014032  0.99192262  1
  Cu  Cu355  1  0.04929484  0.26189380  0.81370094  1
  C  C356  1  0.48599080  0.25632219  0.93981344  1
  C  C357  1  0.31579328  0.40151785  0.85841411  1
  Cu  Cu358  1  0.14591145  0.47914260  0.96988373  1
  N  N359  1  0.37735577  0.28042233  0.97874617  1
  H  H360  1  0.17474263  0.43501915  0.86376003  1
  H  H361  1  0.36955632  0.43432089  0.80558253  1
  Cu  Cu362  1  0.17120405  0.28278150  0.96990627  1
  H  H363  1  0.45012523  0.27389138  0.91924022  1
  C  C364  1  0.14245055  0.40604996  0.87841626  1
  N  N365  1  0.35296497  0.39771274  0.82059591  1
  H  H366  1  0.00511186  0.40623879  0.92831301  1
  C  C367  1  0.29228258  0.45695303  0.87622769  1
  C  C368  1  0.38401121  0.25603832  0.77199083  1
  C  C369  1  0.25870862  0.45284083  0.91565397  1
  C  C370  1  0.04545388  0.35235018  0.77229775  1
  H  H371  1  0.18867272  0.32397001  0.86890518  1
  N  N372  1  0.08628156  0.49429247  0.77406423  1
  C  C373  1  0.31457838  0.34763416  0.88541529  1
  C  C374  1  0.15634782  0.32248671  0.78943807  1
  C  C375  1  0.24899658  0.27159198  0.82338847  1
  N  N376  1  0.08432652  0.49283568  0.90023094  1
  H  H377  1  0.48578557  0.38260332  0.87125627  1
  C  C378  1  0.36596231  0.48555463  0.95482228  1
  C  C379  1  0.05580295  0.33055738  0.91147249  1
  C  C380  1  0.25523722  0.31618769  0.78867828  1
  C  C381  1  0.09127365  0.42853275  0.89687954  1
  H  H382  1  0.02281046  0.29685418  0.92040698  1
  H  H383  1  0.05456628  0.46461867  0.77540811  1
  C  C384  1  0.10216365  0.34419923  0.77920246  1
  H  H385  1  0.38333835  0.36485558  0.81486359  1
  C  C386  1  0.25460732  0.40016826  0.94482215  1
  C  C387  1  0.20710072  0.34933600  0.77401799  1
  C  C388  1  0.45748853  0.28784429  0.80949455  1
  C  C389  1  0.10813133  0.30693491  0.89821171  1
  C  C390  1  0.28396546  0.34936659  0.92760868  1
  H  H391  1  0.34291579  0.30837513  0.87768118  1
  H  H392  1  0.28997813  0.31277569  0.95319933  1
  H  H393  1  0.29698698  0.33039097  0.77961559  1
  H  H394  1  0.23625451  0.48767820  0.93432504  1
  H  H395  1  0.05234752  0.49873139  0.87543027  1
  H  H396  1  0.46708645  0.46354919  0.99891703  1
  C  C397  1  0.14296215  0.62019016  0.14867411  1
  C  C398  1  0.24602854  0.71690346  0.14963247  1
  C  C399  1  0.25757328  0.66574882  0.13701326  1
  Cu  Cu400  1  0.20580464  0.63903641  0.05150588  1
  C  C401  1  0.18076853  0.57441924  0.16454895  1
  N  N402  1  0.17965228  0.55560377  0.03307739  1
  N  N403  1  0.38060648  0.65202196  0.08466761  1
  C  C404  1  0.07356276  0.57780930  0.20206571  1
  N  N405  1  0.26856328  0.60930159  0.12261721  1
  H  H406  1  0.35788819  0.66538685  0.05378766  1
  H  H407  1  0.15677949  0.65567265  0.12580130  1
  C  C408  1  0.08882922  0.62089567  0.16553565  1
  H  H409  1  0.05892559  0.65396900  0.15133098  1
  C  C410  1  0.43895443  0.65268386  0.06765661  1
  C  C411  1  0.44773946  0.61270842  0.02856489  1
  H  H412  1  0.36948674  0.68458471  0.11044584  1
  C  C413  1  0.23353660  0.56248198  0.13948555  1
  Cu  Cu414  1  0.33416300  0.57616096  0.09212951  1
  C  C415  1  0.47617819  0.69309128  0.09055587  1
  H  H416  1  0.33397829  0.70110872  0.20663248  1
  C  C417  1  0.45211528  0.56058825  0.14565479  1
  Cu  Cu418  1  0.08915783  0.68341424  0.05611055  1
  N  N419  1  0.06288928  0.60769854  0.03234465  1
  C  C420  1  0.16573883  0.53289478  0.20278785  1
  C  C421  1  0.11198469  0.53623887  0.22221908  1
  H  H422  1  0.43030423  0.60293052  0.13830206  1
  N  N423  1  0.29931464  0.61116398  0.01309993  1
  N  N424  1  0.15347350  0.68573070  0.01659849  1
  Cu  Cu425  1  0.27669813  0.50932934  0.03638034  1
  Cu  Cu426  1  0.04235992  0.52800384  0.05898616  1
  N  N427  1  0.24682727  0.50514250  0.13145482  1
  H  H428  1  0.41446373  0.58534448  0.00941744  1
  H  H429  1  0.39971025  0.62332946  0.22743229  1
  H  H430  1  0.15793474  0.74567834  0.20065040  1
  C  C431  1  0.49392879  0.52126440  0.15028450  1
  N  N432  1  0.01958865  0.58979146  0.22493027  1
  H  H433  1  0.07148747  0.74147903  0.19672446  1
  H  H434  1  0.00558612  0.54523869  0.22796475  1
  N  N435  1  0.00686657  0.71867801  0.12843001  1
  H  H436  1  0.23831589  0.65386572  0.23761607  1
  H  H437  1  0.46152992  0.71877544  0.12249667  1
  N  N438  1  0.28608277  0.66803761  0.00861248  1
  C  C439  1  0.34846219  0.69881713  0.24429617  1
  H  H440  1  0.17314314  0.64408809  0.24173566  1
  H  H441  1  0.19821786  0.50246080  0.21829129  1
  C  C442  1  0.49002608  0.70827616  0.42719570  1
  N  N443  1  0.16870632  0.62890793  0.49637839  1
  H  H444  1  0.49818284  0.70454772  0.38788754  1
  H  H445  1  0.43871589  0.74340305  0.26767493  1
  N  N446  1  0.26477235  0.63316795  0.49022629  1
  C  C447  1  0.16065331  0.64316121  0.38858348  1
  H  H448  1  0.46844606  0.52961236  0.44628911  1
  C  C449  1  0.38998361  0.69222807  0.33773475  1
  H  H450  1  0.42423791  0.50597889  0.28584123  1
  H  H451  1  0.11938192  0.64592901  0.40652705  1
  C  C452  1  0.03335234  0.59946098  0.34255834  1
  C  C453  1  0.35258601  0.73778415  0.32814160  1
  H  H454  1  0.02555837  0.59978590  0.26379227  1
  Cu  Cu455  1  0.34365516  0.63996636  0.47916210  1
  H  H456  1  0.11598360  0.64157589  0.32343544  1
  H  H457  1  0.30012572  0.63382784  0.31552887  1
  C  C458  1  0.26208244  0.63965287  0.38534219  1
  C  C459  1  0.44851877  0.60016865  0.32013028  1
  C  C460  1  0.25965147  0.63844155  0.33489938  1
  C  C461  1  0.38746233  0.65388724  0.25671462  1
  H  H462  1  0.09073254  0.50458524  0.38563395  1
  C  C463  1  0.16464691  0.51838118  0.45020436  1
  C  C464  1  0.21363673  0.64406419  0.41482027  1
  C  C465  1  0.15743107  0.63913880  0.33950864  1
  C  C466  1  0.40826935  0.64972821  0.30365383  1
  C  C467  1  0.06046967  0.51695265  0.47533040  1
  C  C468  1  0.21644016  0.64098511  0.46805219  1
  N  N469  1  0.04527269  0.56370471  0.44777580  1
  C  C470  1  0.33218067  0.74091540  0.27971298  1
  Cl  Cl471  1  0.04432448  0.72187899  0.28047773  1
  N  N472  1  0.20842531  0.63715927  0.26014726  1
  N  N473  1  0.46174399  0.57987295  0.36401515  1
  H  H474  1  0.02632697  0.66804163  0.41577359  1
  C  C475  1  0.20806608  0.63599307  0.31116644  1
  H  H476  1  0.15981692  0.55587790  0.42640970  1
  H  H477  1  0.25425270  0.51514084  0.44848379  1
  H  H478  1  0.30267721  0.64054238  0.40325627  1
  C  C479  1  0.03642039  0.64266285  0.31743033  1
  N  N480  1  0.48742136  0.58189033  0.28625255  1
  H  H481  1  0.40510798  0.68957210  0.37520507  1
  H  H482  1  0.11265447  0.74040951  0.44324312  1
  H  H483  1  0.03040481  0.56038294  0.36612799  1
  H  H484  1  0.09665126  0.50863225  0.25171139  1
  H  H485  1  0.00473186  0.72322846  0.49964204  1
  Cl  Cl486  1  0.37384073  0.64235256  0.59327677  1
  Cu  Cu487  1  0.36621324  0.57649766  0.64783475  1
  Cu  Cu488  1  0.28292024  0.65944172  0.58735794  1
  C  C489  1  0.14749178  0.60151273  0.57757143  1
  N  N490  1  0.24816313  0.60725545  0.54290520  1
  C  C491  1  0.18737081  0.60818280  0.53729158  1
  Cu  Cu492  1  0.45948254  0.61748910  0.60049122  1
  C  C493  1  0.06664479  0.60083199  0.65318051  1
  C  C494  1  0.08988066  0.59758009  0.56643365  1
  H  H495  1  0.07595551  0.59796895  0.52787886  1
  C  C496  1  0.16409359  0.59825375  0.62752510  1
  C  C497  1  0.12476854  0.59145558  0.66311691  1
  C  C498  1  0.05054090  0.59994763  0.60304933  1
  H  H499  1  0.13744346  0.58081754  0.70118176  1
  N  N500  1  0.02956625  0.61218325  0.69109018  1
  Cu  Cu501  1  0.28787635  0.53416014  0.55304634  1
  H  H502  1  0.20860533  0.59268302  0.63661103  1
  H  H503  1  0.18397561  0.68926033  0.60865108  1
  Cu  Cu504  1  0.37462132  0.71302641  0.54278193  1
  N  N505  1  0.48052104  0.72735542  0.64863123  1
  N  N506  1  0.22070343  0.71478620  0.60207191  1
  N  N507  1  0.43884490  0.53574529  0.62296506  1
  N  N508  1  0.30880206  0.52004430  0.62229014  1
  N  N509  1  0.48782703  0.70107861  0.69137903  1
  C  C510  1  0.47146298  0.52186354  0.65237933  1
  Cu  Cu511  1  0.43577237  0.50545963  0.55202197  1
  H  H512  1  0.04942701  0.61936604  0.72203651  1
  H  H513  1  0.00604865  0.60017597  0.59446379  1
  C  C514  1  0.23145021  0.52168232  0.73127162  1
  C  C515  1  0.26986958  0.51283615  0.64859140  1
  C  C516  1  0.00327643  0.73097155  0.57829740  1
  C  C517  1  0.22273775  0.50425643  0.68081627  1
  Cl  Cl518  1  0.36574330  0.54987117  0.51074435  1
  H  H519  1  0.20445414  0.73399679  0.57192213  1
  H  H520  1  0.26829897  0.54437714  0.74332718  1
  C  C521  1  0.45962982  0.73617147  0.72378527  1
  H  H522  1  0.24918491  0.73624153  0.50765193  1
  H  H523  1  0.19307437  0.53895393  0.79716103  1
  H  H524  1  0.49593881  0.63008285  0.77486887  1
  C  C525  1  0.18585195  0.51978088  0.76138688  1
  C  C526  1  0.01746084  0.66457424  0.80924241  1
  Cu  Cu527  1  0.09638982  0.68762981  0.96812795  1
  H  H528  1  0.45372701  0.74385349  0.94690538  1
  N  N529  1  0.00172420  0.63484086  0.85138378  1
  H  H530  1  0.27540339  0.57516824  0.89308105  1
  H  H531  1  0.14957862  0.66458537  0.76715228  1
  C  C532  1  0.48090448  0.66666763  0.79623537  1
  H  H533  1  0.46487490  0.50411972  0.89549576  1
  H  H534  1  0.32823557  0.70090700  0.86957755  1
  C  C535  1  0.35219004  0.53655261  0.96103412  1
  H  H536  1  0.15368543  0.70759606  0.88510678  1
  C  C537  1  0.24845670  0.59559527  0.86573224  1
  H  H538  1  0.48252444  0.67836014  0.94072090  1
  H  H539  1  0.35494615  0.60593567  0.84482048  1
  Cl  Cl540  1  0.38481550  0.53136530  0.76795963  1
  Cu  Cu541  1  0.04719539  0.52900445  0.96296987  1
  N  N542  1  0.04976991  0.61296936  0.86804167  1
  C  C543  1  0.23370448  0.64514763  0.78814318  1
  N  N544  1  0.07078066  0.65596514  0.79649213  1
  C  C545  1  0.09216008  0.62450351  0.83490816  1
  C  C546  1  0.15480205  0.61638126  0.83655878  1
  N  N547  1  0.06515044  0.60893474  0.98798927  1
  H  H548  1  0.49336894  0.62370013  0.86390738  1
  C  C549  1  0.17518861  0.64719631  0.79623133  1
  H  H550  1  0.11663174  0.51430714  0.88351952  1
  C  C551  1  0.33335966  0.59604912  0.97374651  1
  N  N552  1  0.15760585  0.73278330  0.91604121  1
  H  H553  1  0.24824289  0.66568425  0.75584798  1
  C  C554  1  0.30718977  0.68592517  0.96368658  1
  C  C555  1  0.45359923  0.71241989  0.87379452  1
  C  C556  1  0.42079963  0.52705735  0.83063206  1
  C  C557  1  0.19115491  0.59317155  0.87388956  1
  C  C558  1  0.27186152  0.62449340  0.82325165  1
  Cu  Cu559  1  0.20208094  0.68490700  0.96225578  1
  C  C560  1  0.30428344  0.73717079  0.88434953  1
  N  N561  1  0.46554751  0.71259048  0.92244481  1
  C  C562  1  0.47661082  0.66327953  0.84474000  1
  N  N563  1  0.18137259  0.54884251  0.98965164  1
  H  H564  1  0.03341303  0.71429841  0.88617208  1
  H  H565  1  0.34896737  0.63934911  0.79314441  1
  H  H566  1  0.17367898  0.57603228  0.90860666  1
  C  C567  1  0.29323109  0.73987958  0.93499884  1
  N  N568  1  0.32861434  0.62950934  0.82425946  1
  N  N569  1  0.33958298  0.64423197  0.94452891  1
  C  C570  1  0.45713898  0.72050284  0.77539260  1
  C  C571  1  0.04794235  0.74995564  0.90888794  1
  C  C572  1  0.43656285  0.53768244  0.87568252  1
  H  H573  1  0.42114062  0.57726669  0.89583241  1
  H  H574  1  0.29838861  0.50094768  0.85970720  1
  H  H575  1  0.08609399  0.51122924  0.80855873  1
  C  C576  1  0.07871197  0.89095442  0.22383096  1
  H  H577  1  0.17725384  0.87898961  0.19201198  1
  C  C578  1  0.05972387  0.91370909  0.17949916  1
  C  C579  1  0.04907794  0.87708239  0.14043754  1
  H  H580  1  0.05358634  0.96124381  0.17506273  1
  Cu  Cu581  1  0.35601055  0.88899372  0.20434968  1
  C  C582  1  0.10543114  0.82927888  0.22428584  1
  C  C583  1  0.16217865  0.83617993  0.20368633  1
  N  N584  1  0.35854528  0.81477204  0.16780757  1
  N  N585  1  0.21445885  0.83656983  0.05527034  1
  H  H586  1  0.20610431  0.84017989  0.09088897  1
  C  C587  1  0.27442096  0.84922960  0.05171631  1
  C  C588  1  0.31284835  0.80348637  0.06006278  1
  C  C589  1  0.36708599  0.81432837  0.04251092  1
  H  H590  1  0.28138475  0.90529814  0.10664211  1
  H  H591  1  0.19385416  0.87688177  0.04200059  1
  H  H592  1  0.26138246  0.81218650  0.14646754  1
  C  C593  1  0.07467972  0.78891597  0.19198686  1
  C  C594  1  0.05302205  0.81391972  0.14917853  1
  H  H595  1  0.43338749  0.86298153  0.11675983  1
  C  C596  1  0.18635865  0.78529345  0.19101876  1
  N  N597  1  0.43814601  0.92561154  0.20312740  1
  N  N598  1  0.40137580  0.78771281  0.17463037  1
  Cu  Cu599  1  0.45398914  0.83011178  0.21683893  1
  H  H600  1  0.39940764  0.78163927  0.05011653  1
  C  C601  1  0.02630056  0.77212882  0.11362381  1
  C  C602  1  0.37947251  0.86814535  0.01672737  1
  C  C603  1  0.28694492  0.90631631  0.03021556  1
  N  N604  1  0.01574175  0.78314531  0.06590797  1
  H  H605  1  0.36858388  0.94519022  0.09859618  1
  H  H606  1  0.42098574  0.95132614  0.17568588  1
  C  C607  1  0.23520692  0.77454686  0.16270553  1
  H  H608  1  0.25539428  0.94204285  0.02976189  1
  C  C609  1  0.33880097  0.91455308  0.00865783  1
  C  C610  1  0.47509123  0.86886005  0.13240253  1
  H  H611  1  0.46058709  0.95280564  0.22639422  1
  H  H612  1  0.03963663  0.89497942  0.10528615  1
  C  C613  1  0.28885019  0.94473669  0.12950427  1
  H  H614  1  0.17465457  0.93323921  0.11988659  1
  H  H615  1  0.29795348  0.78734542  0.22936552  1
  N  N616  1  0.19151738  0.95256239  0.14807948  1
  H  H617  1  0.17885338  0.96369629  0.03459726  1
  C  C618  1  0.48586737  0.90320686  0.17481974  1
  H  H619  1  0.30022224  0.76339948  0.07878704  1
  C  C620  1  0.34091538  0.96795893  0.12423590  1
  C  C621  1  0.24515381  0.97255162  0.15589090  1
  C  C622  1  0.09190631  0.98321130  0.00756761  1
  H  H623  1  0.15895528  0.97527301  0.16374366  1
  Cu  Cu624  1  0.18642070  0.75530236  0.04053837  1
  Cu  Cu625  1  0.38992055  0.98652941  0.24703044  1
  C  C626  1  0.15000475  0.96661928  0.00277420  1
  H  H627  1  0.49204662  0.96544723  0.44970609  1
  H  H628  1  0.03973978  0.98094061  0.39602623  1
  Cu  Cu629  1  0.29941203  0.87665386  0.28762229  1
  N  N630  1  0.47017241  0.77760931  0.26956054  1
  H  H631  1  0.28577649  0.99063356  0.47836071  1
  H  H632  1  0.39853253  0.79178672  0.47799005  1
  H  H633  1  0.06668834  0.96972668  0.26370213  1
  N  N634  1  0.08058960  0.92598090  0.26133280  1
  C  C635  1  0.46065408  0.99508150  0.43401500  1
  C  C636  1  0.48702946  0.77669372  0.49969431  1
  C  C637  1  0.21310797  0.95643534  0.36686475  1
  C  C638  1  0.04497600  0.79698392  0.39002989  1
  H  H639  1  0.25663547  0.77735636  0.27382683  1
  C  C640  1  0.25830398  0.98721010  0.33814442  1
  H  H641  1  0.09747702  0.86986815  0.43543479  1
  C  C642  1  0.17601017  0.91768170  0.34056538  1
  H  H643  1  0.18154036  0.79357929  0.44554330  1
  C  C644  1  0.26148617  0.76573976  0.47823422  1
  N  N645  1  0.28933312  0.95566077  0.30768595  1
  H  H646  1  0.15423402  0.94167917  0.48001483  1
  H  H647  1  0.10880945  0.81371590  0.26281106  1
  C  C648  1  0.16357800  0.93391527  0.44209790  1
  C  C649  1  0.41868072  0.96577588  0.40571650  1
  C  C650  1  0.25654840  0.84197876  0.42331357  1
  H  H651  1  0.23351815  0.87111724  0.39869844  1
  H  H652  1  0.34383674  0.86475124  0.42019315  1
  Cu  Cu653  1  0.40634829  0.87789155  0.28811354  1
  N  N654  1  0.41995729  0.86602787  0.35956831  1
  N  N655  1  0.29734443  0.79271459  0.26624093  1
  H  H656  1  0.01327985  0.84741479  0.33027843  1
  C  C657  1  0.13143644  0.89211067  0.41666709  1
  H  H658  1  0.46219739  0.80096351  0.30226893  1
  H  H659  1  0.33757098  0.98296546  0.36649387  1
  H  H660  1  0.09660886  0.92023734  0.29470861  1
  C  C661  1  0.31287785  0.83518529  0.43520505  1
  C  C662  1  0.22586129  0.79748543  0.44734619  1
  C  C663  1  0.47719244  0.76596874  0.44845722  1
  C  C664  1  0.19977421  0.96992660  0.41593070  1
  C  C665  1  0.04102380  0.79281276  0.44151611  1
  N  N666  1  0.07851058  0.75478633  0.46304675  1
  C  C667  1  0.45455197  0.81371566  0.41817101  1
  H  H668  1  0.07560884  0.77190973  0.36958367  1
  C  C669  1  0.13460116  0.88551805  0.36587161  1
  N  N670  1  0.44618411  0.86637130  0.43814233  1
  H  H671  1  0.33708138  0.76711821  0.35684814  1
  C  C672  1  0.31624308  0.79374704  0.47358529  1
  N  N673  1  0.43834112  0.81118207  0.37086593  1
  H  H674  1  0.17917178  0.90992510  0.30078270  1
  C  C675  1  0.01029491  0.83852431  0.36681023  1
  H  H676  1  0.10943540  0.85215372  0.34739931  1
  C  C677  1  0.42494604  0.89949718  0.40178052  1
  H  H678  1  0.09116877  0.76010143  0.49771036  1
  C  C679  1  0.22677588  0.86176227  0.67207198  1
  C  C680  1  0.27285892  0.84861384  0.70378708  1
  H  H681  1  0.20843646  0.90811535  0.66651505  1
  C  C682  1  0.36439680  0.83689560  0.61743938  1
  C  C683  1  0.35372231  0.88620939  0.58982657  1
  H  H684  1  0.12746586  0.84035195  0.69837415  1
  C  C685  1  0.42207089  0.81806835  0.61829696  1
  C  C686  1  0.39789448  0.91761669  0.56486795  1
  C  C687  1  0.14056261  0.89452634  0.56264097  1
  H  H688  1  0.31065282  0.89921081  0.58461606  1
  C  C689  1  0.43230991  0.94459114  0.68132747  1
  H  H690  1  0.17476577  0.82115991  0.61857749  1
  C  C691  1  0.20890464  0.81552177  0.64173558  1
  C  C692  1  0.29634744  0.78745832  0.71156603  1
  N  N693  1  0.07159507  0.85974560  0.62812627  1
  H  H694  1  0.34897904  0.95622554  0.65675253  1
  C  C695  1  0.09811560  0.85470948  0.58420507  1
  N  N696  1  0.07707299  0.80665298  0.55944065  1
  H  H697  1  0.33004385  0.81388874  0.63954899  1
  C  C698  1  0.45543036  0.89909989  0.56625467  1
  C  C699  1  0.04063000  0.78191807  0.59042330  1
  N  N700  1  0.43406954  0.78295562  0.70314206  1
  C  C701  1  0.44628744  0.77655288  0.65552806  1
  N  N702  1  0.03758945  0.81305447  0.63339924  1
  H  H703  1  0.03430547  0.88851025  0.70372090  1
  C  C704  1  0.05324045  0.86656686  0.73503332  1
  H  H705  1  0.42744508  0.89997716  0.69354107  1
  C  C706  1  0.38838813  0.97696450  0.66493486  1
  C  C707  1  0.14467099  0.95350647  0.57907252  1
  N  N708  1  0.37882061  0.96907060  0.54259008  1
  C  C709  1  0.18450822  0.86927151  0.53256097  1
  H  H710  1  0.32803800  0.77537125  0.73962504  1
  C  C711  1  0.22833832  0.96639102  0.53256535  1
  H  H712  1  0.38068278  0.81929955  0.52827334  1
  C  C713  1  0.10410402  0.83821278  0.73243837  1
  C  C714  1  0.23486175  0.75785666  0.64150289  1
  H  H715  1  0.33823103  0.97901536  0.54553335  1
  C  C716  1  0.27369835  0.75325625  0.67779343  1
  H  H717  1  0.11382121  0.97059821  0.60470293  1
  C  C718  1  0.29239220  0.89669108  0.73491541  1
  C  C719  1  0.46506614  0.84578040  0.58999414  1
  C  C720  1  0.48595826  0.97177375  0.68938759  1
  H  H721  1  0.48881516  0.92219843  0.54435034  1
  C  C722  1  0.18715958  0.99170924  0.56361723  1
  H  H723  1  0.48492888  0.82135486  0.51500081  1
  N  N724  1  0.26225233  0.94777844  0.74442514  1
  H  H725  1  0.18594360  0.82519237  0.51964104  1
  C  C726  1  0.23109779  0.90242194  0.52210763  1
  N  N727  1  0.36755333  0.78477599  0.50227945  1
  H  H728  1  0.26470257  0.88274983  0.50265226  1
  H  H729  1  0.38951773  0.97659928  0.50709848  1
  C  C730  1  0.43727346  0.87710830  0.99853672  1
  H  H731  1  0.44732944  0.97569169  0.92396000  1
  H  H732  1  0.20926895  0.79218584  0.75191155  1
  N  N733  1  0.34321508  0.89857127  0.75837502  1
  C  C734  1  0.04055053  0.83765429  0.95126577  1
  H  H735  1  0.23597877  0.88217491  0.93655553  1
  H  H736  1  0.28333973  0.87790978  0.80897682  1
  H  H737  1  0.03701425  0.76525461  0.76424254  1
  C  C738  1  0.13343442  0.95350268  0.91891862  1
  H  H739  1  0.01021433  0.99581926  0.96915049  1
  H  H740  1  0.41300445  0.80101581  0.87129692  1
  H  H741  1  0.16203354  0.89698635  0.87184088  1
  C  C742  1  0.00962477  0.79328951  0.92650824  1
  C  C743  1  0.28569273  0.78177989  0.85293649  1
  C  C744  1  0.12698807  0.81509070  0.77678274  1
  C  C745  1  0.26548158  0.79186821  0.95339560  1
  H  H746  1  0.21987591  0.86605123  0.81107034  1
  C  C747  1  0.10257515  0.76146500  0.92762075  1
  N  N748  1  0.29511123  0.98338320  0.77159890  1
  C  C749  1  0.04038434  0.83857616  0.82214463  1
  H  H750  1  0.36674258  0.92662156  0.87194466  1
  C  C751  1  0.17036133  0.94947913  0.95823807  1
  C  C752  1  0.34542184  0.95265846  0.77824230  1
  H  H753  1  0.01547481  0.83564939  0.85592093  1
  C  C754  1  0.02203803  0.86889318  0.77886851  1
  H  H755  1  0.11103411  0.79007065  0.85029236  1
  C  C756  1  0.09291520  0.81295732  0.82033592  1
  C  C757  1  0.43776263  0.77092116  0.80181956  1
  C  C758  1  0.07500224  0.96898068  0.92189555  1
  H  H759  1  0.04598471  0.95834372  0.89249587  1
  H  H760  1  0.19308523  0.77852729  0.81057009  1
  N  N761  1  0.15731809  0.94180237  0.87026665  1
  H  H762  1  0.13270946  0.83538048  0.97284515  1
  H  H763  1  0.42755329  0.81405004  0.78542825  1
  N  N764  1  0.25183128  0.88065190  0.83470647  1
  C  C765  1  0.44156401  0.97938969  0.88449309  1
  C  C766  1  0.05488453  0.98498531  0.96664082  1
  N  N767  1  0.46669366  0.83724506  0.97148238  1
  H  H768  1  0.25904169  0.79631743  0.99195938  1
  C  C769  1  0.25136826  0.83842072  0.92164594  1
  H  H770  1  0.17001014  0.98003541  0.77211736  1
  H  H771  1  0.07441670  0.94594945  0.78321693  1
  H  H772  1  0.18753840  0.76362172  0.90368107  1
  C  C773  1  0.39392962  0.97264130  0.80879011  1
  N  N774  1  0.17908560  0.79275564  0.77838654  1
  C  C775  1  0.39873841  0.95483872  0.85877148  1
  C  C776  1  0.09717644  0.81736942  0.95227408  1
  Cu  Cu777  1  0.23282169  0.96435084  0.84522003  1
  C  C778  1  0.26031130  0.83345599  0.87150539  1
  C  C779  1  0.43021438  0.76328229  0.85164102  1
  H  H780  1  0.12911781  0.94624399  0.84387990  1
  C  C781  1  0.08224548  0.99450341  0.78286418  1
  H  H782  1  0.29696527  0.78167443  0.81302510  1
  H  H783  1  0.21371097  0.93636319  0.95749052  1
  N  N784  1  0.46136040  0.93259133  0.99836643  1
  H  H785  1  0.34943896  0.95203574  0.98530725  1
  H  H786  1  0.02044368  0.87585391  0.96824349  1
  C  C787  1  0.85869528  0.20471883  0.15116881  1
  H  H788  1  0.89838947  0.19238830  0.13266910  1
  C  C789  1  0.85952311  0.20714385  0.20178554  1
  C  C790  1  0.55061258  0.06155702  0.19232002  1
  C  C791  1  0.90297507  0.05886408  0.20783672  1
  C  C792  1  0.85621235  0.07928787  0.18127294  1
  H  H793  1  0.54803572  0.15348065  0.17337190  1
  C  C794  1  0.65068380  0.04022241  0.20011006  1
  N  N795  1  0.80207677  0.08354766  0.20735450  1
  C  C796  1  0.60009653  0.03111995  0.17610644  1
  C  C797  1  0.54565180  0.20089664  0.16830463  1
  C  C798  1  0.86049123  0.08478548  0.12960759  1
  C  C799  1  0.70084965  0.12052809  0.03976289  1
  H  H800  1  0.89820484  0.15539213  0.03869049  1
  C  C801  1  0.91032287  0.07235484  0.10576113  1
  C  C802  1  0.91415908  0.19288976  0.23214418  1
  C  C803  1  0.95821616  0.05129695  0.13439186  1
  C  C804  1  0.73461227  0.17277152  0.02299545  1
  C  C805  1  0.95432618  0.04742311  0.18574457  1
  C  C806  1  0.61509553  0.08411241  0.07744924  1
  H  H807  1  0.80738977  0.21131059  0.08486385  1
  C  C808  1  0.81057450  0.21627916  0.12308315  1
  H  H809  1  0.60675808  0.22411929  0.22588815  1
  C  C810  1  0.95566253  0.22975332  0.03189885  1
  C  C811  1  0.71093201  0.06472916  0.01754783  1
  N  N812  1  0.96315140  0.19490355  0.20834405  1
  H  H813  1  0.82236073  0.09620858  0.10909225  1
  N  N814  1  0.71280222  0.22913189  0.02258181  1
  N  N815  1  0.93786776  0.17148262  0.03395557  1
  N  N816  1  0.78889327  0.17002591  0.00972678  1
  C  C817  1  0.65276700  0.13077185  0.06954765  1
  H  H818  1  0.77309319  0.08578416  0.18235483  1
  H  H819  1  0.91326184  0.08059086  0.06666633  1
  C  C820  1  0.62469886  0.02920925  0.05419583  1
  H  H821  1  0.57853006  0.08578288  0.10155197  1
  H  H822  1  0.64898941  0.17265766  0.09276810  1
  C  C823  1  0.54875156  0.09221720  0.23751006  1
  C  C824  1  0.58255974  0.23814860  0.19358345  1
  N  N825  1  0.80433862  0.22709208  0.00310493  1
  H  H826  1  0.79392767  0.01659661  0.06437398  1
  H  H827  1  0.68941841  0.02008387  0.18721910  1
  H  H828  1  0.70244353  0.23836882  0.09701343  1
  C  C829  1  0.67431624  0.01676105  0.02644826  1
  H  H830  1  0.60783273  0.19234592  0.01763829  1
  C  C831  1  0.51853986  0.20997755  0.01795284  1
  C  C832  1  0.86971443  0.00307101  0.02176263  1
  C  C833  1  0.81526966  0.23193522  0.22913538  1
  C  C834  1  0.76623138  0.23740856  0.15199747  1
  C  C835  1  0.50220869  0.22745412  0.14026905  1
  H  H836  1  0.51256093  0.19313943  0.05341480  1
  H  H837  1  0.82928117  0.08067490  0.00634272  1
  H  H838  1  0.80807074  0.12829718  0.21990979  1
  C  C839  1  0.65208558  0.07121442  0.24411145  1
  H  H840  1  0.89762683  0.05049142  0.24626445  1
  H  H841  1  0.95915834  0.13740574  0.01664413  1
  H  H842  1  0.99103123  0.02845719  0.20428460  1
  N  N843  1  0.71325277  0.24648771  0.13221196  1
  C  C844  1  0.76828878  0.24620987  0.20322554  1
  H  H845  1  0.70800636  0.04904998  0.46751776  1
  H  H846  1  0.81756964  0.23831335  0.26685533  1
  Cu  Cu847  1  0.80227280  0.03868943  0.42312234  1
  H  H848  1  0.64946290  0.23609092  0.46394350  1
  Cl  Cl849  1  0.79275270  0.13808949  0.43857396  1
  H  H850  1  0.59733586  0.11186242  0.29799212  1
  H  H851  1  0.72287160  0.11209935  0.25596182  1
  Cu  Cu852  1  0.77375183  0.23647917  0.44413147  1
  Cu  Cu853  1  0.88331799  0.14583907  0.44874495  1
  H  H854  1  0.59189656  0.06765885  0.39087891  1
  H  H855  1  0.55331991  0.21729372  0.31945437  1
  H  H856  1  0.50992630  0.11122360  0.25203212  1
  C  C857  1  0.63814705  0.19244630  0.35226079  1
  H  H858  1  0.51111801  0.18086638  0.40361994  1
  N  N859  1  0.70575459  0.07470442  0.26915173  1
  C  C860  1  0.57795356  0.19443371  0.34728034  1
  Cu  Cu861  1  0.77052149  0.02853392  0.25623776  1
  Cu  Cu862  1  0.90569471  0.01762909  0.42383801  1
  C  C863  1  0.65249248  0.16958477  0.39770178  1
  H  H864  1  0.99261780  0.04345041  0.28026659  1
  N  N865  1  0.98591936  0.16584673  0.28570804  1
  C  C866  1  0.51604334  0.04435511  0.34946012  1
  C  C867  1  0.55545966  0.17558029  0.39169145  1
  H  H868  1  0.66202910  0.24043797  0.29147352  1
  N  N869  1  0.89354739  0.06694595  0.47333568  1
  H  H870  1  0.68166709  0.17431540  0.28913677  1
  Cl  Cl871  1  0.79807865  0.14090133  0.33077414  1
  H  H872  1  0.59591403  0.15246047  0.46215711  1
  Cu  Cu873  1  0.71538545  0.09618641  0.33681290  1
  H  H874  1  0.69578596  0.16328364  0.41013841  1
  N  N875  1  0.91630516  0.18000968  0.27887828  1
  Cu  Cu876  1  0.75393610  0.22727193  0.34254953  1
  N  N877  1  0.67775219  0.20701759  0.31344135  1
  C  C878  1  0.60126468  0.16604340  0.42305813  1
  Cu  Cu879  1  0.87956859  0.18620840  0.34002538  1
  Cl  Cl880  1  0.94270211  0.14401907  0.39216130  1
  C  C881  1  0.59946154  0.09385824  0.26171651  1
  N  N882  1  0.69894859  0.02208655  0.36818771  1
  Cu  Cu883  1  0.84005920  0.05186723  0.32672270  1
  C  C884  1  0.57158053  0.03692399  0.36414133  1
  C  C885  1  0.89456603  0.13742041  0.55091099  1
  H  H886  1  0.83513515  0.09442379  0.71609215  1
  N  N887  1  0.84896425  0.15831067  0.52936997  1
  C  C888  1  0.92654462  0.18299903  0.57934687  1
  C  C889  1  0.90998555  0.21220118  0.62274969  1
  H  H890  1  0.77731400  0.10962587  0.63857184  1
  C  C891  1  0.82449205  0.14067213  0.70260409  1
  C  C892  1  0.79079057  0.14623229  0.66149598  1
  N  N893  1  0.91113425  0.07969197  0.55557979  1
  C  C894  1  0.84423188  0.19198312  0.72654833  1
  H  H895  1  0.86845392  0.20318126  0.63814276  1
  C  C896  1  0.77842569  0.20584351  0.64727908  1
  N  N897  1  0.71883112  0.17081489  0.57479198  1
  N  N898  1  0.70031823  0.19532637  0.53447329  1
  C  C899  1  0.74764665  0.21488916  0.60014813  1
  C  C900  1  0.59857450  0.13044602  0.68646930  1
  H  H901  1  0.56856860  0.18086613  0.62507943  1
  C  C902  1  0.56306300  0.16673844  0.66082838  1
  H  H903  1  0.63320986  0.10794307  0.66920087  1
  C  C904  1  0.54374274  0.06320230  0.55742119  1
  C  C905  1  0.57146037  0.11651616  0.54157818  1
  Cu  Cu906  1  0.79255168  0.10319496  0.51314335  1
  C  C907  1  0.90260121  0.04551900  0.51561839  1
  H  H908  1  0.53828527  0.05050970  0.68618518  1
  C  C909  1  0.58379236  0.11254991  0.73511354  1
  C  C910  1  0.53790695  0.16571253  0.52958538  1
  H  H911  1  0.61769447  0.11592685  0.54119920  1
  H  H912  1  0.71788445  0.01112331  0.70980251  1
  C  C913  1  0.50475912  0.17940137  0.73703056  1
  C  C914  1  0.98122659  0.19698078  0.56105092  1
  N  N915  1  0.62382653  0.01133392  0.74224269  1
  C  C916  1  0.76091553  0.00130605  0.69870131  1
  H  H917  1  0.69455433  0.02241730  0.62836819  1
  N  N918  1  0.73636673  0.02934998  0.61668991  1
  H  H919  1  0.55630137  0.20701627  0.51303698  1
  H  H920  1  0.99476936  0.17729134  0.52392805  1
  C  C921  1  0.77809641  0.01025074  0.64810582  1
  C  C922  1  0.57849680  0.00809106  0.55915323  1
  C  C923  1  0.51387550  0.18785850  0.68608103  1
  N  N924  1  0.72537907  0.05425969  0.50030925  1
  H  H925  1  0.69308055  0.07392432  0.52040758  1
  H  H926  1  0.72600444  0.00901946  0.51093376  1
  C  C927  1  0.94409994  0.24753617  0.64920237  1
  Cu  Cu928  1  0.83493865  0.23585294  0.53802981  1
  H  H929  1  0.68170877  0.24649617  0.64519966  1
  H  H930  1  0.84405666  0.00132932  0.59367765  1
  H  H931  1  0.73713070  0.00480789  0.58544723  1
  N  N932  1  0.65341330  0.01167506  0.82028645  1
  N  N933  1  0.62825346  0.06305715  0.81100281  1
  H  H934  1  0.56175558  0.04014292  0.86212477  1
  N  N935  1  0.74493226  0.15558964  0.90349167  1
  N  N936  1  0.94634019  0.24691965  0.84494350  1
  H  H937  1  0.90592093  0.14322216  0.76354895  1
  N  N938  1  0.88983594  0.18441900  0.76179752  1
  H  H939  1  0.97604339  0.02385567  0.85324612  1
  H  H940  1  0.83943598  0.13684947  0.91136490  1
  H  H941  1  0.67199492  0.22082188  0.94720094  1
  H  H942  1  0.51105739  0.05553409  0.78907820  1
  C  C943  1  0.75810244  0.20320122  0.87378848  1
  H  H944  1  0.99260634  0.01447637  0.78312226  1
  N  N945  1  0.63717025  0.23528826  0.93100226  1
  H  H946  1  0.75427999  0.24498545  0.75499794  1
  C  C947  1  0.58250375  0.23065916  0.95049432  1
  C  C948  1  0.76106583  0.24699382  0.79352801  1
  H  H949  1  0.70700665  0.13912894  0.89678981  1
  H  H950  1  0.96913440  0.12614200  0.82886166  1
  C  C951  1  0.88077355  0.13566684  0.93196213  1
  C  C952  1  0.86548867  0.05504047  0.99255556  1
  H  H953  1  0.53983892  0.02301304  0.91559046  1
  C  C954  1  0.61227922  0.06444790  0.76258189  1
  C  C955  1  0.93632936  0.21501187  0.88441059  1
  H  H956  1  0.53749515  0.13452136  0.80178874  1
  C  C957  1  0.74807413  0.20008402  0.82121983  1
  C  C958  1  0.92740207  0.15393917  0.89654528  1
  Cu  Cu959  1  0.95001004  0.24515140  0.77360641  1
  H  H960  1  0.75437044  0.15773613  0.93838427  1
  H  H961  1  0.73032223  0.16018769  0.80477975  1
  H  H962  1  0.86925685  0.19079707  0.79360473  1
  N  N963  1  0.52580867  0.04008886  0.88236657  1
  C  C964  1  0.95122149  0.11333462  0.86299435  1
  C  C965  1  0.54004615  0.14178196  0.76123413  1
  H  H966  1  0.87103048  0.17027213  0.95873269  1
  C  C967  1  0.95193419  0.05420589  0.87668841  1
  H  H968  1  0.77281753  0.03271600  0.89374540  1
  C  C969  1  0.89327115  0.07177194  0.94982234  1
  C  C970  1  0.92798519  0.03343999  0.92126351  1
  C  C971  1  0.79289426  0.24850196  0.89409195  1
  H  H972  1  0.80474443  0.24760429  0.93157242  1
  N  N973  1  0.74279544  0.00042776  0.89493566  1
  H  H974  1  0.71048265  0.01900202  0.87547059  1
  C  C975  1  0.57159240  0.20791046  0.99777115  1
  H  H976  1  0.74666231  0.05740707  0.99253149  1
  H  H977  1  0.74340079  0.36282881  0.12438442  1
  H  H978  1  0.70390597  0.38227720  0.16791599  1
  N  N979  1  0.71889373  0.39935385  0.13734561  1
  C  C980  1  0.72709611  0.46063760  0.13592724  1
  C  C981  1  0.94762210  0.33063290  0.06121754  1
  H  H982  1  0.92585072  0.36373239  0.08185872  1
  N  N983  1  0.86560775  0.37844922  0.18698487  1
  H  H984  1  0.82940032  0.38047994  0.16847962  1
  H  H985  1  0.89086336  0.35711444  0.16361972  1
  C  C986  1  0.57596182  0.44622660  0.09608781  1
  H  H987  1  0.84591428  0.46053922  0.08083560  1
  N  N988  1  0.60970508  0.40117978  0.07986912  1
  H  H989  1  0.59994979  0.35770022  0.07357932  1
  H  H990  1  0.64870183  0.40480666  0.09547485  1
  H  H991  1  0.75037323  0.46606073  0.06090925  1
  C  C992  1  0.57612540  0.30200492  0.18651025  1
  C  C993  1  0.60821023  0.33958844  0.22050535  1
  C  C994  1  0.74497678  0.49295816  0.09342959  1
  H  H995  1  0.70319311  0.46900844  0.21259663  1
  C  C996  1  0.71602807  0.49156239  0.17922474  1
  H  H997  1  0.52965881  0.43816879  0.08799696  1
  C  C998  1  0.92447868  0.27473370  0.05546214  1
  H  H999  1  0.53820296  0.37423731  0.14207773  1
  C  C1000  1  0.53793337  0.32643963  0.15080419  1
  H  H1001  1  0.66641847  0.32168318  0.02110038  1
  N  N1002  1  0.60948554  0.39968116  0.22660462  1
  H  H1003  1  0.93434953  0.29714285  0.22152118  1
  H  H1004  1  0.73293248  0.27095290  0.22119984  1
  N  N1005  1  0.86282455  0.48345729  0.05469196  1
  H  H1006  1  0.83130596  0.48520860  0.02883143  1
  C  C1007  1  0.59496800  0.49826965  0.11685109  1
  H  H1008  1  0.81695709  0.46295272  0.22620184  1
  C  C1009  1  0.86219646  0.35818159  0.23483045  1
  H  H1010  1  0.68239930  0.27621509  0.14134065  1
  C  C1011  1  0.99991682  0.34425702  0.03836461  1
  H  H1012  1  0.77678695  0.39605346  0.24673546  1
  H  H1013  1  0.90949663  0.45014735  0.20812959  1
  H  H1014  1  0.53188729  0.42625154  0.22260195  1
  H  H1015  1  0.97446727  0.35302470  0.22455910  1
  C  C1016  1  0.75821440  0.26314916  0.00963355  1
  N  N1017  1  0.92717895  0.48695061  0.21725112  1
  C  C1018  1  0.50126351  0.28933854  0.12745707  1
  C  C1019  1  0.90500118  0.31600122  0.24867037  1
  H  H1020  1  0.96748473  0.47965439  0.23033748  1
  H  H1021  1  0.88557197  0.26366696  0.07494296  1
  H  H1022  1  0.64896416  0.43107911  0.00558468  1
  C  C1023  1  0.69822092  0.34945766  0.00522900  1
  H  H1024  1  0.91482160  0.42140028  0.00413964  1
  N  N1025  1  0.50653613  0.30631820  0.27795117  1
  C  C1026  1  0.50597410  0.31011773  0.32757825  1
  H  H1027  1  0.52059189  0.34115104  0.25703283  1
  H  H1028  1  0.99442376  0.26746207  0.45929214  1
  H  H1029  1  0.58116825  0.36502836  0.42596702  1
  N  N1030  1  0.64420988  0.31270383  0.25251269  1
  C  C1031  1  0.84976100  0.47223936  0.46044953  1
  C  C1032  1  0.59094962  0.45336807  0.47461909  1
  H  H1033  1  0.74459622  0.43453168  0.37469530  1
  C  C1034  1  0.50197043  0.31464464  0.42814862  1
  N  N1035  1  0.80523755  0.26028063  0.38440101  1
  C  C1036  1  0.53467284  0.47552323  0.48005890  1
  Cu  Cu1037  1  0.94431132  0.37288349  0.39905684  1
  C  C1038  1  0.70973291  0.36388233  0.41198406  1
  N  N1039  1  0.88841485  0.31687085  0.41098717  1
  C  C1040  1  0.81225194  0.34840974  0.31014256  1
  H  H1041  1  0.93638828  0.26779094  0.30947902  1
  H  H1042  1  0.50720407  0.47634049  0.26505806  1
  C  C1043  1  0.65680196  0.47002059  0.28319376  1
  H  H1044  1  0.65631268  0.43399975  0.42292532  1
  H  H1045  1  0.64102615  0.30115947  0.39190826  1
  N  N1046  1  0.88836905  0.43472508  0.38265872  1
  H  H1047  1  0.98473149  0.47816292  0.39068271  1
  C  C1048  1  0.73964132  0.35583832  0.49409617  1
  C  C1049  1  0.71081176  0.29930813  0.49668538  1
  H  H1050  1  0.99811444  0.37933064  0.29931099  1
  C  C1051  1  0.92352007  0.31444536  0.49005897  1
  C  C1052  1  0.74526584  0.38543609  0.45077596  1
  C  C1053  1  0.61634886  0.45599117  0.42654527  1
  C  C1054  1  0.90245129  0.29803038  0.29719706  1
  H  H1055  1  0.68859111  0.40656060  0.34635046  1
  C  C1056  1  0.87760476  0.29164726  0.45427122  1
  C  C1057  1  0.54791076  0.34387005  0.40359366  1
  C  C1058  1  0.85948851  0.31585340  0.32800787  1
  N  N1059  1  0.71924665  0.39807853  0.37266321  1
  N  N1060  1  0.66481447  0.35612466  0.28084325  1
  C  C1061  1  0.67110313  0.31392901  0.41747741  1
  H  H1062  1  0.77068733  0.42595208  0.44507395  1
  H  H1063  1  0.87183792  0.43718171  0.47985616  1
  N  N1064  1  0.83972195  0.26102034  0.47648005  1
  C  C1065  1  0.54970537  0.34356972  0.35287538  1
  C  C1066  1  0.64288161  0.40845731  0.26441910  1
  C  C1067  1  0.85127667  0.47592156  0.40881754  1
  H  H1068  1  0.85794289  0.41119792  0.36150660  1
  H  H1069  1  0.58092639  0.37031341  0.33482333  1
  C  C1070  1  0.98099262  0.30172119  0.48578341  1
  H  H1071  1  0.63748767  0.38573843  0.49864471  1
  C  C1072  1  0.67527168  0.27776934  0.45861101  1
  H  H1073  1  0.77748953  0.36006104  0.33273020  1
  C  C1074  1  0.85019720  0.29456072  0.38024286  1
  C  C1075  1  0.81168604  0.36817238  0.26239920  1
  H  H1076  1  0.90498207  0.45655326  0.35323684  1
  C  C1077  1  0.58974772  0.48445695  0.39009729  1
  H  H1078  1  0.61058836  0.48419759  0.35425810  1
  H  H1079  1  0.73068546  0.35207061  0.65781929  1
  C  C1080  1  0.73060382  0.39883799  0.64936414  1
  C  C1081  1  0.70238527  0.42018929  0.60829570  1
  H  H1082  1  0.67861371  0.38993302  0.58550940  1
  C  C1083  1  0.93824473  0.37585997  0.55979588  1
  C  C1084  1  0.56780685  0.31707616  0.59604518  1
  C  C1085  1  0.75565400  0.43993176  0.68184520  1
  C  C1086  1  0.90045748  0.34778869  0.52906422  1
  H  H1087  1  0.92056714  0.40621009  0.58777999  1
  C  C1088  1  0.56975566  0.34299900  0.67986289  1
  C  C1089  1  0.90203025  0.38711962  0.70246828  1
  C  C1090  1  0.95925212  0.40449563  0.71704495  1
  C  C1091  1  0.54559475  0.35048072  0.63514258  1
  C  C1092  1  0.87623570  0.41949639  0.66794930  1
  H  H1093  1  0.83515464  0.40334689  0.65449420  1
  H  H1094  1  0.78364561  0.30237795  0.65881955  1
  H  H1095  1  0.85527011  0.35130276  0.53289748  1
  H  H1096  1  0.55274401  0.36258984  0.71284341  1
  H  H1097  1  0.88139937  0.35234517  0.72140213  1
  C  C1098  1  0.62151685  0.31058862  0.68000714  1
  H  H1099  1  0.53247856  0.45996681  0.55026090  1
  H  H1100  1  0.93024509  0.26766175  0.68317912  1
  C  C1101  1  0.71124317  0.48141817  0.59649923  1
  C  C1102  1  0.90200439  0.46753332  0.64178976  1
  H  H1103  1  0.58928555  0.40634392  0.53637593  1
  C  C1104  1  0.52983375  0.32714245  0.55376573  1
  N  N1105  1  0.50316530  0.46580723  0.52544109  1
  C  C1106  1  0.77619903  0.41633543  0.72880930  1
  C  C1107  1  0.50115521  0.46938892  0.73085418  1
  H  H1108  1  0.83959142  0.28855520  0.73816743  1
  H  H1109  1  0.51084380  0.38179861  0.63049297  1
  C  C1110  1  0.60037453  0.46075979  0.74344386  1
  C  C1111  1  0.99672058  0.36782998  0.55501405  1
  H  H1112  1  0.76154585  0.37214868  0.52444681  1
  N  N1113  1  0.65477414  0.31387512  0.72163891  1
  N  N1114  1  0.76800982  0.35891409  0.74058788  1
  C  C1115  1  0.98082651  0.46111513  0.69741607  1
  C  C1116  1  0.99007144  0.36619032  0.74885110  1
  N  N1117  1  0.74992734  0.26593020  0.57455072  1
  C  C1118  1  0.95642449  0.48855278  0.65829934  1
  N  N1119  1  0.54652864  0.31489879  0.50924293  1
  C  C1120  1  0.61583926  0.27896663  0.59843349  1
  C  C1121  1  0.61189741  0.49456450  0.70155548  1
  H  H1122  1  0.69813738  0.31569780  0.72153045  1
  C  C1123  1  0.64518840  0.27579427  0.64111214  1
  H  H1124  1  0.63071206  0.25149977  0.56867055  1
  N  N1125  1  0.61793130  0.42325242  0.51274178  1
  H  H1126  1  0.64513583  0.34764985  0.74531537  1
  N  N1127  1  0.86935107  0.48486411  0.60297384  1
  H  H1128  1  0.82749329  0.47295579  0.60011135  1
  H  H1129  1  0.66623771  0.47914681  0.53082538  1
  C  C1130  1  0.82988297  0.25161105  0.71310491  1
  C  C1131  1  0.79824996  0.25832350  0.67099470  1
  C  C1132  1  0.72186238  0.25336446  0.53295855  1
  C  C1133  1  0.53943174  0.25887671  0.92151883  1
  C  C1134  1  0.75389100  0.32789520  0.99659327  1
  H  H1135  1  0.55483040  0.25173197  0.77172071  1
  H  H1136  1  0.54823290  0.27586728  0.88451697  1
  C  C1137  1  0.68773652  0.40988787  0.99426555  1
  C  C1138  1  0.91702533  0.40927774  0.96531783  1
  H  H1139  1  0.88816978  0.47428424  0.75814381  1
  H  H1140  1  0.81360786  0.44461802  0.93501034  1
  H  H1141  1  0.68591874  0.44524555  0.76675017  1
  C  C1142  1  0.92775777  0.38517406  0.86257574  1
  H  H1143  1  0.69628208  0.37703397  0.89888437  1
  C  C1144  1  0.79762818  0.36128149  0.97171305  1
  C  C1145  1  0.54844307  0.49158417  0.93357353  1
  C  C1146  1  0.92981276  0.34043263  0.89925678  1
  C  C1147  1  0.91422355  0.45476035  0.92910901  1
  H  H1148  1  0.93532819  0.37518088  0.82426213  1
  C  C1149  1  0.54362407  0.44550523  0.75769783  1
  H  H1150  1  0.58468043  0.40501091  0.89661376  1
  H  H1151  1  0.64761403  0.27177965  0.91113441  1
  C  C1152  1  0.61410939  0.29623339  0.81721585  1
  C  C1153  1  0.92314278  0.35237490  0.95010623  1
  C  C1154  1  0.52199380  0.35992626  0.85606778  1
  C  C1155  1  0.51397915  0.31408210  0.82022691  1
  C  C1156  1  0.54352295  0.44175356  0.95202469  1
  H  H1157  1  0.70305046  0.31395586  0.86886593  1
  H  H1158  1  0.92752985  0.31444339  0.97768164  1
  H  H1159  1  0.82961799  0.33505461  0.87952760  1
  C  C1160  1  0.80620661  0.29762577  0.86430861  1
  C  C1161  1  0.62553379  0.33972920  0.85370960  1
  C  C1162  1  0.56100214  0.28484152  0.79925745  1
  H  H1163  1  0.64236327  0.41495595  0.79938798  1
  C  C1164  1  0.73181766  0.44251486  0.97015304  1
  N  N1165  1  0.99679131  0.31632506  0.76966011  1
  N  N1166  1  0.79630560  0.41178859  0.80456377  1
  C  C1167  1  0.91627783  0.44353583  0.87877614  1
  N  N1168  1  0.79311060  0.44965815  0.76821958  1
  N  N1169  1  0.67662744  0.34783235  0.87552524  1
  C  C1170  1  0.93907528  0.27911414  0.88349284  1
  C  C1171  1  0.78563748  0.41836329  0.95708089  1
  C  C1172  1  0.78435181  0.30075736  0.81698178  1
  H  H1173  1  0.53257139  0.42273690  0.79086068  1
  H  H1174  1  0.90959530  0.47996774  0.85190502  1
  H  H1175  1  0.64874569  0.27100173  0.80073464  1
  N  N1176  1  0.64429151  0.43954530  0.76982035  1
  H  H1177  1  0.83346530  0.33934025  0.96031268  1
  C  C1178  1  0.78321375  0.35539173  0.78810886  1
  H  H1179  1  0.56635982  0.34614635  0.95764001  1
  C  C1180  1  0.54033660  0.38349165  0.97322204  1
  C  C1181  1  0.57550217  0.36854742  0.87020723  1
  C  C1182  1  0.92284034  0.49718440  0.77398682  1
  N  N1183  1  0.78196767  0.67732616  0.10893844  1
  Cu  Cu1184  1  0.82434132  0.67502688  0.05265745  1
  C  C1185  1  0.75051633  0.58144443  0.14008737  1
  C  C1186  1  0.75725676  0.64891652  0.14340163  1
  N  N1187  1  0.72529700  0.68203948  0.17959297  1
  Cu  Cu1188  1  0.64761633  0.61677613  0.13771986  1
  H  H1189  1  0.77213930  0.57516244  0.06114573  1
  C  C1190  1  0.54300685  0.64314882  0.04118535  1
  Cu  Cu1191  1  0.66883404  0.65912065  0.22120203  1
  Cu  Cu1192  1  0.69319738  0.72317817  0.09088021  1
  H  H1193  1  0.72209754  0.57881311  0.21485250  1
  C  C1194  1  0.75345681  0.55311658  0.09393619  1
  C  C1195  1  0.72810554  0.55266345  0.18126928  1
  C  C1196  1  0.60404171  0.63655641  0.02707586  1
  Cu  Cu1197  1  0.88874293  0.68994823  0.13052067  1
  Cu  Cu1198  1  0.85522195  0.60505580  0.18305685  1
  Cu  Cu1199  1  0.61305736  0.71858125  0.16609866  1
  N  N1200  1  0.88449655  0.67992436  0.19879653  1
  Cu  Cu1201  1  0.81046939  0.69665870  0.21868837  1
  C  C1202  1  0.95654865  0.63648969  0.08475644  1
  C  C1203  1  0.92160447  0.53977893  0.10715862  1
  C  C1204  1  0.89001982  0.53585280  0.06613752  1
  Cu  Cu1205  1  0.95472146  0.64270505  0.20968646  1
  N  N1206  1  0.57588304  0.59046653  0.14932567  1
  H  H1207  1  0.54338076  0.61339815  0.16650305  1
  C  C1208  1  0.53179016  0.69210155  0.07340193  1
  C  C1209  1  0.95521827  0.59027425  0.11819582  1
  C  C1210  1  0.55594357  0.53730306  0.14002957  1
  C  C1211  1  0.93815822  0.62505465  0.03223022  1
  C  C1212  1  0.98520921  0.69395076  0.08621201  1
  C  C1213  1  0.88566171  0.58522452  0.02945424  1
  N  N1214  1  0.64701410  0.63088836  0.06171848  1
  C  C1215  1  0.74860868  0.74227366  0.17027111  1
  N  N1216  1  0.69370077  0.63219842  0.03513111  1
  H  H1217  1  0.98571611  0.58511993  0.14726909  1
  H  H1218  1  0.93286889  0.66713118  0.01124545  1
  C  C1219  1  0.82946382  0.50382899  0.24490784  1
  C  C1220  1  0.50365654  0.60749741  0.01632343  1
  N  N1221  1  0.99111793  0.73436216  0.04863305  1
  C  C1222  1  0.88767673  0.51978164  0.24436468  1
  H  H1223  1  0.63979943  0.51063504  0.11368337  1
  H  H1224  1  0.56666198  0.72076524  0.08562032  1
  H  H1225  1  0.92704788  0.50291656  0.13215147  1
  H  H1226  1  0.96957051  0.59710497  0.01571215  1
  C  C1227  1  0.84007956  0.59884325  0.00365384  1
  H  H1228  1  0.50596059  0.67236195  0.32030799  1
  H  H1229  1  0.74413711  0.52520455  0.26938014  1
  Cu  Cu1230  1  0.90578777  0.72678703  0.25397039  1
  C  C1231  1  0.64230832  0.72451774  0.29381481  1
  N  N1232  1  0.72186245  0.65402697  0.27874123  1
  H  H1233  1  0.50429230  0.61217158  0.44470472  1
  C  C1234  1  0.98135550  0.66240268  0.40964177  1
  N  N1235  1  0.52410031  0.54751461  0.30952855  1
  C  C1236  1  0.50886694  0.54792293  0.35761626  1
  C  C1237  1  0.62764563  0.71855542  0.43200639  1
  N  N1238  1  0.70140776  0.62008772  0.45837681  1
  N  N1239  1  0.96957126  0.52048392  0.48468807  1
  C  C1240  1  0.50204230  0.65994388  0.45705087  1
  C  C1241  1  0.68118573  0.65700603  0.49235671  1
  H  H1242  1  0.82517301  0.74435084  0.35289078  1
  C  C1243  1  0.52647983  0.74726367  0.27209032  1
  C  C1244  1  0.54019870  0.69813754  0.30129246  1
  C  C1245  1  0.95258590  0.70761180  0.38434862  1
  C  C1246  1  0.89407041  0.70022118  0.37885467  1
  C  C1247  1  0.78313780  0.54944012  0.45387551  1
  C  C1248  1  0.86537936  0.60085674  0.29830753  1
  C  C1249  1  0.69868744  0.69393368  0.30822668  1
  H  H1250  1  0.94946197  0.56653609  0.28700558  1
  H  H1251  1  0.61004819  0.65227723  0.33526833  1
  N  N1252  1  0.86536550  0.74080718  0.34780087  1
  C  C1253  1  0.53545203  0.51163912  0.39619701  1
  C  C1254  1  0.89535926  0.60502712  0.42006579  1
  H  H1255  1  0.87587629  0.63772487  0.32249239  1
  H  H1256  1  0.82146006  0.50809032  0.33837205  1
  C  C1257  1  0.78091034  0.54840869  0.40327155  1
  H  H1258  1  0.85631078  0.71908167  0.48318213  1
  C  C1259  1  0.59813921  0.68876262  0.31109637  1
  H  H1260  1  0.74562065  0.57302634  0.38498538  1
  C  C1261  1  0.76737488  0.63811959  0.30645053  1
  C  C1262  1  0.90574480  0.56460558  0.27727362  1
  C  C1263  1  0.98881641  0.56335461  0.45239561  1
  C  C1264  1  0.64274331  0.70592813  0.48108736  1
  C  C1265  1  0.81717054  0.51152022  0.37744587  1
  C  C1266  1  0.80724828  0.59002661  0.28976572  1
  N  N1267  1  0.76883925  0.66705900  0.35132269  1
  C  C1268  1  0.86525111  0.65135512  0.40127926  1
  C  C1269  1  0.78862199  0.53713722  0.26676337  1
  C  C1270  1  0.74564649  0.59192934  0.48012780  1
  H  H1271  1  0.64411639  0.69156368  0.40171460  1
  N  N1272  1  0.72701471  0.70555008  0.35084592  1
  H  H1273  1  0.68306052  0.56444328  0.30751167  1
  C  C1274  1  0.67040504  0.51866690  0.29565766  1
  H  H1275  1  0.87573177  0.56429934  0.43181508  1
  C  C1276  1  0.95455398  0.60753561  0.42496765  1
  H  H1277  1  0.81949724  0.64472081  0.39972798  1
  H  H1278  1  0.97649702  0.74594400  0.37264507  1
  C  C1279  1  0.81373029  0.50815558  0.48517730  1
  C  C1280  1  0.50988372  0.50681434  0.44168780  1
  H  H1281  1  0.93704080  0.63437153  0.49893535  1
  N  N1282  1  0.82191184  0.73669824  0.49763808  1
  N  N1283  1  0.71397207  0.65056989  0.53424498  1
  N  N1284  1  0.75541342  0.61246769  0.52583437  1
  H  H1285  1  0.84297128  0.60765758  0.59676820  1
  H  H1286  1  0.73984832  0.57256200  0.62267335  1
  H  H1287  1  0.54764211  0.63634283  0.56096549  1
  Cl  Cl1288  1  0.77243593  0.67224917  0.66501687  1
  H  H1289  1  0.65511053  0.66066645  0.62468759  1
  H  H1290  1  0.59640697  0.67434769  0.64922921  1
  N  N1291  1  0.63615306  0.69085724  0.64511659  1
  C  C1292  1  0.77483954  0.61352157  0.71794432  1
  H  H1293  1  0.69912845  0.53980223  0.53673382  1
  N  N1294  1  0.87020105  0.60846677  0.56863140  1
  H  H1295  1  0.84750026  0.61321949  0.53929324  1
  C  C1296  1  0.91743044  0.64594003  0.57437037  1
  H  H1297  1  0.52560728  0.58302314  0.53065744  1
  N  N1298  1  0.51162715  0.62243481  0.54308985  1
  H  H1299  1  0.91177607  0.65266525  0.65363581  1
  H  H1300  1  0.65570490  0.67964214  0.71136433  1
  C  C1301  1  0.94687531  0.65929524  0.53110078  1
  C  C1302  1  0.93436633  0.66818715  0.62112399  1
  H  H1303  1  0.87623716  0.52579488  0.58737334  1
  H  H1304  1  0.98043693  0.73902044  0.65480551  1
  H  H1305  1  0.78900096  0.53313389  0.69029512  1
  H  H1306  1  0.84978239  0.67678458  0.71502598  1
  C  C1307  1  0.88683567  0.69784759  0.72984992  1
  H  H1308  1  0.97588186  0.52896364  0.64192363  1
  H  H1309  1  0.79760386  0.70039809  0.50782680  1
  H  H1310  1  0.99538625  0.63600868  0.69172239  1
  C  C1311  1  0.50088892  0.72743695  0.52849236  1
  H  H1312  1  0.50263783  0.73428300  0.56640469  1
  C  C1313  1  0.73603253  0.52441285  0.62965446  1
  N  N1314  1  0.69026351  0.50196210  0.55255756  1
  H  H1315  1  0.58137250  0.53977787  0.63951980  1
  C  C1316  1  0.50843136  0.66968067  0.50728800  1
  C  C1317  1  0.97248928  0.71475042  0.62207037  1
  C  C1318  1  0.98652928  0.70488055  0.53384292  1
  H  H1319  1  0.63776016  0.73815064  0.55554535  1
  C  C1320  1  0.62724328  0.74537714  0.51846828  1
  C  C1321  1  0.77466513  0.57709683  0.74861700  1
  H  H1322  1  0.57985688  0.61215966  0.73005010  1
  H  H1323  1  0.80739309  0.50559670  0.52449639  1
  C  C1324  1  0.51145441  0.50470812  0.68783030  1
  N  N1325  1  0.65929494  0.68943973  0.74657252  1
  C  C1326  1  0.76112448  0.50319587  0.67093385  1
  H  H1327  1  0.65456831  0.50321146  0.68944482  1
  C  C1328  1  0.56938729  0.51681037  0.67284599  1
  N  N1329  1  0.71924252  0.50027679  0.95912063  1
  H  H1330  1  0.89955297  0.52778209  0.97239151  1
  H  H1331  1  0.57758001  0.72861189  0.83902637  1
  H  H1332  1  0.74915973  0.52590503  0.94167333  1
  H  H1333  1  0.54451709  0.53681621  0.79345510  1
  N  N1334  1  0.62360705  0.64556074  0.98264862  1
  C  C1335  1  0.72163137  0.67248961  0.95142956  1
  C  C1336  1  0.99525608  0.74657393  0.75354381  1
  H  H1337  1  0.77564996  0.54531708  0.77881555  1
  C  C1338  1  0.77929130  0.65773159  0.94756185  1
  N  N1339  1  0.91575055  0.51469118  0.94052318  1
  C  C1340  1  0.92129648  0.66916493  0.76200982  1
  H  H1341  1  0.51659607  0.57708566  0.98783216  1
  H  H1342  1  0.68003662  0.51797572  0.95946396  1
  H  H1343  1  0.69790405  0.71229112  0.75083096  1
  C  C1344  1  0.96105768  0.52421375  0.79084715  1
  C  C1345  1  0.58427561  0.59047680  0.85228080  1
  H  H1346  1  0.90612831  0.68165939  0.93961833  1
  H  H1347  1  0.99698922  0.55170562  0.80594735  1
  H  H1348  1  0.90677609  0.54931091  0.91909417  1
  H  H1349  1  0.63208777  0.64537425  0.90692214  1
  C  C1350  1  0.65719260  0.74434089  0.92119202  1
  C  C1351  1  0.68077708  0.64670393  0.98694513  1
  H  H1352  1  0.91403537  0.62300913  0.77608675  1
  H  H1353  1  0.81120406  0.68240292  0.92679762  1
  N  N1354  1  0.54198975  0.55422242  0.93358443  1
  H  H1355  1  0.68001583  0.70290005  0.84105885  1
  C  C1356  1  0.65117128  0.66736168  0.83074153  1
  C  C1357  1  0.79069023  0.60833755  0.97885059  1
  C  C1358  1  0.57045622  0.57522882  0.80225000  1
  C  C1359  1  0.62439029  0.63679616  0.86724301  1
  C  C1360  1  0.63397416  0.65720024  0.78196924  1
  C  C1361  1  0.89222884  0.72606515  0.92731033  1
  H  H1362  1  0.90502674  0.70280521  0.85330255  1
  C  C1363  1  0.59182592  0.61279764  0.76715172  1
  C  C1364  1  0.56242482  0.55892131  0.89353458  1
  C  C1365  1  0.97641041  0.69346491  0.77486930  1
  H  H1366  1  0.75485930  0.58212895  0.99081023  1
  H  H1367  1  0.62958136  0.72569853  0.94820832  1
  C  C1368  1  0.71033666  0.72316653  0.91908893  1
  C  C1369  1  0.89306550  0.73653282  0.87875181  1
  H  H1370  1  0.74225534  0.74150571  0.89330917  1
  H  H1371  1  0.71466397  0.93792785  0.17949719  1
  C  C1372  1  0.71926124  0.84520740  0.17958656  1
  C  C1373  1  0.85693640  0.89202140  0.10724983  1
  C  C1374  1  0.72145696  0.89944163  0.20308434  1
  H  H1375  1  0.59529739  0.93861670  0.05002877  1
  N  N1376  1  0.87227346  0.84488370  0.13179322  1
  Cu  Cu1377  1  0.85020345  0.81348348  0.19499618  1
  H  H1378  1  0.71138271  0.84631224  0.13952799  1
  C  C1379  1  0.84233416  0.93689826  0.08540441  1
  Cu  Cu1380  1  0.80233814  0.81244718  0.09367155  1
  N  N1381  1  0.63913056  0.85667853  0.06913089  1
  C  C1382  1  0.57220547  0.84534270  0.13057367  1
  C  C1383  1  0.68085231  0.83262504  0.04405774  1
  C  C1384  1  0.58618661  0.88539929  0.16786864  1
  C  C1385  1  0.62316067  0.81878476  0.10176675  1
  H  H1386  1  0.62979722  0.89169665  0.17701728  1
  C  C1387  1  0.73634655  0.79309682  0.20538649  1
  H  H1388  1  0.82059668  0.92997812  0.17068066  1
  Cu  Cu1389  1  0.94074789  0.85454146  0.17044345  1
  C  C1390  1  0.54219821  0.91594151  0.18939109  1
  C  C1391  1  0.83708805  0.93271486  0.20765042  1
  N  N1392  1  0.71005067  0.78361334  0.04728612  1
  H  H1393  1  0.54967539  0.94955270  0.21822940  1
  Cu  Cu1394  1  0.91664334  0.79073453  0.09316383  1
  C  C1395  1  0.83093486  0.98846984  0.05754337  1
  N  N1396  1  0.92411069  0.80396947  0.22659259  1
  N  N1397  1  0.58839399  0.98087057  0.06274631  1
  H  H1398  1  0.96638217  0.79229573  0.22753373  1
  H  H1399  1  0.78721329  0.88156860  0.03031856  1
  N  N1400  1  0.63811268  0.76631550  0.11740781  1
  C  C1401  1  0.51878623  0.83951190  0.10833421  1
  H  H1402  1  0.54792136  0.98929900  0.06306957  1
  H  H1403  1  0.68430459  0.97149375  0.01393856  1
  H  H1404  1  0.90770661  0.97460828  0.02143667  1
  H  H1405  1  0.51145891  0.81622729  0.07401688  1
  C  C1406  1  0.70242298  0.87109381  0.00101731  1
  C  C1407  1  0.75735378  0.89645489  0.00072035  1
  H  H1408  1  0.59935528  0.99824389  0.14477357  1
  C  C1409  1  0.86038524  0.76368784  0.00847080  1
  H  H1410  1  0.55844973  0.80959207  0.21884906  1
  C  C1411  1  0.85639792  0.93469414  0.24740905  1
  C  C1412  1  0.57137686  0.77790502  0.24760595  1
  H  H1413  1  0.65686783  0.80066586  0.24429223  1
  N  N1414  1  0.77762422  0.75103057  0.13233373  1
  Cu  Cu1415  1  0.77300428  0.76184321  0.01436851  1
  N  N1416  1  0.85415277  0.75823104  0.04997997  1
  H  H1417  1  0.92512365  0.83462363  0.25233943  1
  C  C1418  1  0.99983286  0.82812948  0.46664131  1
  H  H1419  1  0.67608665  0.86614096  0.46221790  1
  C  C1420  1  0.74952965  0.79291601  0.25449095  1
  C  C1421  1  0.73145375  0.90088258  0.25280956  1
  H  H1422  1  0.83966053  0.96206664  0.47305399  1
  C  C1423  1  0.57925637  0.94097431  0.31709077  1
  H  H1424  1  0.74471771  0.94799833  0.31855330  1
  H  H1425  1  0.69560983  0.97345769  0.28375453  1
  N  N1426  1  0.73539625  0.95439828  0.28221764  1
  H  H1427  1  0.93242996  0.89402081  0.46149099  1
  C  C1428  1  0.88261708  0.93314106  0.29557723  1
  C  C1429  1  0.74350241  0.80223455  0.48215209  1
  C  C1430  1  0.96312685  0.86564739  0.44311686  1
  N  N1431  1  0.67927034  0.92258533  0.38213829  1
  C  C1432  1  0.79936287  0.78370992  0.47166155  1
  H  H1433  1  0.50058579  0.91795386  0.27895898  1
  H  H1434  1  0.75222857  0.85473588  0.31707394  1
  C  C1435  1  0.52413658  0.95157636  0.29952635  1
  C  C1436  1  0.96676676  0.87209297  0.39178046  1
  C  C1437  1  0.62587197  0.77176806  0.26245139  1
  C  C1438  1  0.81241521  0.86677403  0.41355180  1
  C  C1439  1  0.74481272  0.84750142  0.27879392  1
  H  H1440  1  0.83686996  0.89062995  0.38626654  1
  H  H1441  1  0.59820276  0.78229940  0.38060049  1
  H  H1442  1  0.59581838  0.89528912  0.41447052  1
  C  C1443  1  0.73075473  0.93389344  0.40039165  1
  N  N1444  1  0.58632838  0.87657383  0.44684324  1
  C  C1445  1  0.93078472  0.91155436  0.35966471  1
  H  H1446  1  0.59749430  0.89706308  0.30924891  1
  N  N1447  1  0.75143294  0.98799371  0.38957586  1
  C  C1448  1  0.72030678  0.85095540  0.45731842  1
  C  C1449  1  0.59865315  0.81731003  0.45748492  1
  N  N1450  1  0.91365203  0.96403056  0.37127006  1
  H  H1451  1  0.87665777  0.80575118  0.42763673  1
  C  C1452  1  0.66076965  0.97709220  0.36681231  1
  N  N1453  1  0.87454295  0.98215396  0.32362061  1
  C  C1454  1  0.75677837  0.88292083  0.42634096  1
  C  C1455  1  0.60065614  0.98237653  0.34926064  1
  N  N1456  1  0.91503463  0.89012942  0.31465686  1
  C  C1457  1  0.60524099  0.77354189  0.42032143  1
  H  H1458  1  0.87915040  0.78291638  0.34553045  1
  C  C1459  1  0.83444789  0.81824302  0.43908129  1
  H  H1460  1  0.97185646  0.99424518  0.32158778  1
  H  H1461  1  0.76540355  0.75270200  0.27369739  1
  H  H1462  1  0.60292188  0.90554587  0.47212678  1
  C  C1463  1  0.59235698  0.78359419  0.64854928  1
  C  C1464  1  0.63087332  0.86947232  0.60352980  1
  C  C1465  1  0.59078974  0.84437676  0.63644741  1
  C  C1466  1  0.68499713  0.83895069  0.59710560  1
  H  H1467  1  0.55240224  0.86781721  0.64710446  1
  H  H1468  1  0.71872800  0.86050179  0.57890608  1
  H  H1469  1  0.59694887  0.83476793  0.53600487  1
  C  C1470  1  0.89651483  0.86126977  0.55474955  1
  N  N1471  1  0.88759124  0.80648508  0.57465994  1
  C  C1472  1  0.85689992  0.88703006  0.52294655  1
  C  C1473  1  0.94589182  0.95627142  0.55957719  1
  H  H1474  1  0.71017885  0.81181856  0.68947526  1
  H  H1475  1  0.64926481  0.90374620  0.70004994  1
  C  C1476  1  0.61823646  0.92599497  0.57927078  1
  C  C1477  1  0.90775893  0.97988940  0.52491295  1
  C  C1478  1  0.94217239  0.89809508  0.57315207  1
  C  C1479  1  0.85530983  0.96600913  0.71271949  1
  C  C1480  1  0.86861997  0.96597010  0.66302374  1
  H  H1481  1  0.86242211  0.77385052  0.56563535  1
  N  N1482  1  0.52670512  0.93666888  0.71218845  1
  H  H1483  1  0.90956265  0.95297639  0.65097355  1
  C  C1484  1  0.67572796  0.88911353  0.72917991  1
  N  N1485  1  0.94602997  0.92095997  0.73485650  1
  H  H1486  1  0.97007100  0.82382719  0.71114266  1
  N  N1487  1  0.64725090  0.94585414  0.53907670  1
  H  H1488  1  0.55692765  0.96053984  0.73171026  1
  C  C1489  1  0.70970581  0.83977707  0.72331384  1
  H  H1490  1  0.91535801  0.78735959  0.59771734  1
  H  H1491  1  0.87576752  0.81677777  0.65684292  1
  C  C1492  1  0.83170676  0.99473639  0.63190037  1
  C  C1493  1  0.86512437  0.94434526  0.50312431  1
  H  H1494  1  0.99373552  0.82716233  0.50515286  1
  N  N1495  1  0.57419764  0.96311378  0.58996261  1
  C  C1496  1  0.95938786  0.77906988  0.72323996  1
  H  H1497  1  0.51153490  0.90415164  0.73431565  1
  C  C1498  1  0.68786023  0.78101194  0.61280256  1
  N  N1499  1  0.87033691  0.78092395  0.67877704  1
  H  H1500  1  0.55692935  0.76067102  0.66363987  1
  H  H1501  1  0.82187728  0.85897840  0.50809201  1
  C  C1502  1  0.60647188  0.80185843  0.50775935  1
  H  H1503  1  0.71460097  0.77450434  0.50264284  1
  H  H1504  1  0.78061636  0.75984262  0.72691769  1
  C  C1505  1  0.64140052  0.75062237  0.63473307  1
  H  H1506  1  0.97160345  0.88009086  0.59951820  1
  H  H1507  1  0.57654319  0.82974063  0.73676526  1
  H  H1508  1  0.50958831  0.83074335  0.58869845  1
  H  H1509  1  0.98512792  0.97982922  0.57169265  1
  C  C1510  1  0.79903784  0.98183441  0.73124957  1
  C  C1511  1  0.90611228  0.75585963  0.71192471  1
  C  C1512  1  0.89614120  0.94456112  0.74835302  1
  N  N1513  1  0.62346468  0.99615390  0.52651942  1
  H  H1514  1  0.83264104  0.76418844  0.67080741  1
  H  H1515  1  0.73039561  0.75917682  0.60936015  1
  N  N1516  1  0.76817260  0.76626936  0.76155333  1
  H  H1517  1  0.79165210  0.97923465  0.77221465  1
  C  C1518  1  0.50498835  0.87277319  0.94801773  1
  N  N1519  1  0.50491948  0.92931963  0.96878371  1
  C  C1520  1  0.72822320  0.95983567  0.93062344  1
  N  N1521  1  0.93895180  0.92224252  0.81643231  1
  C  C1522  1  0.70575024  0.89772833  0.81640953  1
  H  H1523  1  0.65716670  0.82538556  0.87895030  1
  C  C1524  1  0.66191327  0.89063166  0.96743284  1
  C  C1525  1  0.56179661  0.87799135  0.81982147  1
  H  H1526  1  0.88055918  0.85621357  0.80543471  1
  H  H1527  1  0.61733186  0.87567600  0.97095217  1
  C  C1528  1  0.87775997  0.79476777  0.86235172  1
  H  H1529  1  0.93447751  0.94766917  0.89194625  1
  H  H1530  1  0.54550612  0.75906218  0.92498226  1
  C  C1531  1  0.67346649  0.93206434  0.93205252  1
  C  C1532  1  0.56389833  0.79502992  0.90010340  1
  C  C1533  1  0.63111290  0.78547227  0.88628259  1
  H  H1534  1  0.76651554  0.83429667  0.84138347  1
  C  C1535  1  0.85195060  0.83118752  0.94217516  1
  H  H1536  1  0.89991691  0.78993751  0.78985941  1
  H  H1537  1  0.85636744  0.88659865  0.87669844  1
  C  C1538  1  0.73952443  0.82049630  0.76513051  1
  H  H1539  1  0.53062410  0.94096652  0.86844471  1
  C  C1540  1  0.76539604  0.94384360  0.96861485  1
  H  H1541  1  0.80506474  0.76304877  0.78240520  1
  H  H1542  1  0.64492400  0.94174598  0.90263732  1
  H  H1543  1  0.56212748  0.91037181  0.78988592  1
  H  H1544  1  0.83461844  0.85854529  0.96998783  1
  H  H1545  1  0.96580013  0.79155776  0.91798792  1
  H  H1546  1  0.70480701  0.92384411  0.85075062  1
  N  N1547  1  0.57804298  0.79882133  0.76384799  1
  C  C1548  1  0.54435382  0.89485554  0.86666894  1
  C  C1549  1  0.54020321  0.85615058  0.90714513  1
  C  C1550  1  0.86733097  0.77143498  0.95788670  1
  C  C1551  1  0.97081707  0.90518208  0.77627898  1
  H  H1552  1  0.60480927  0.76111687  0.76031669  1
  C  C1553  1  0.58265448  0.77483491  0.84952236  1
  N  N1554  1  0.92736033  0.97215429  0.92065573  1
  N  N1555  1  0.89513707  0.95079103  0.79942134  1
  H  H1556  1  0.90894441  0.94608529  0.94762790  1
  N  N1557  1  0.87549224  0.81096658  0.81430310  1
  C  C1558  1  0.86181842  0.84323028  0.89424560  1
  C  C1559  1  0.73952159  0.84861466  0.81259316  1
  C  C1560  1  0.67753509  0.92019832  0.77475357  1
  H  H1561  1  0.80103541  0.97530235  0.97567745  1
  C  C1562  1  0.57500220  0.81847744  0.80996039  1
  C  C1563  1  0.65273609  0.98049884  0.77704621  1
