# generated using pymatgen
data_Cu17H144C168(N30Cl)2
_symmetry_space_group_name_H-M   'P 1'
_cell_length_a   20.48371287
_cell_length_b   31.70488242
_cell_length_c   22.79293763
_cell_angle_alpha   90.00000000
_cell_angle_beta   90.00000000
_cell_angle_gamma   90.00000000
_symmetry_Int_Tables_number   1
_chemical_formula_structural   Cu17H144C168(N30Cl)2
_chemical_formula_sum   'Cu68 H576 C672 N240 Cl8'
_cell_volume   14802.50200482
_cell_formula_units_Z   4
loop_
 _symmetry_equiv_pos_site_id
 _symmetry_equiv_pos_as_xyz
  1  'x, y, z'
loop_
 _atom_site_type_symbol
 _atom_site_label
 _atom_site_symmetry_multiplicity
 _atom_site_fract_x
 _atom_site_fract_y
 _atom_site_fract_z
 _atom_site_occupancy
  H  H0  1  0.34263422  0.05954964  0.31473066  1
  N  N1  1  0.40591741  0.12733513  0.25524362  1
  C  C2  1  0.26717557  0.07733252  0.43114877  1
  H  H3  1  0.32500911  0.08987772  0.18201833  1
  H  H4  1  0.08931842  0.10296686  0.00649857  1
  H  H5  1  0.42264258  0.15076957  0.22958008  1
  C  C6  1  0.27121275  0.24008769  0.45905440  1
  C  C7  1  0.31389182  0.08463365  0.29672591  1
  H  H8  1  0.40120282  0.09140930  0.07899510  1
  N  N9  1  0.37712261  0.06456765  0.07366434  1
  C  C10  1  0.34044167  0.12253176  0.26980355  1
  N  N11  1  0.29329945  0.03805917  0.43489522  1
  H  H12  1  0.00437872  0.11623637  0.29544283  1
  C  C13  1  0.32836846  0.00178243  0.21976226  1
  C  C14  1  0.17766147  0.06352193  0.12515493  1
  C  C15  1  0.11372704  0.19977987  0.29999278  1
  C  C16  1  0.01058012  0.06615290  0.18101670  1
  H  H17  1  0.08477026  0.09853219  0.43492586  1
  N  N18  1  0.41279903  0.21746575  0.39835595  1
  N  N19  1  0.35904775  0.04271527  0.43642619  1
  C  C20  1  0.03313922  0.15976130  0.22373563  1
  H  H21  1  0.38390674  0.05964297  0.02976179  1
  H  H22  1  0.25056064  0.12482232  0.07619674  1
  C  C23  1  0.15782915  0.22449234  0.33829206  1
  H  H24  1  0.21179477  0.08862428  0.21384256  1
  C  C25  1  0.42407234  0.01008956  0.27923503  1
  H  H26  1  0.30159755  0.00794439  0.17871350  1
  C  C27  1  0.44841920  0.13635527  0.49217470  1
  C  C28  1  0.11816484  0.21150539  0.23835584  1
  H  H29  1  0.28905278  0.18407214  0.25564454  1
  N  N30  1  0.31535196  0.10734623  0.43414484  1
  H  H31  1  0.24438305  0.18003689  0.16792613  1
  C  C32  1  0.42351053  0.22948948  0.17576331  1
  C  C33  1  0.22505779  0.07650634  0.16781134  1
  H  H34  1  0.04055099  0.02872578  0.42780008  1
  C  C35  1  0.39070127  0.02168537  0.22688373  1
  H  H36  1  0.48446178  0.05316547  0.39414643  1
  C  C37  1  0.22758502  0.23867992  0.40668542  1
  H  H38  1  0.08223636  0.15306912  0.36644397  1
  C  C39  1  0.28616008  0.15174419  0.26803330  1
  H  H40  1  0.15968122  0.03302383  0.04120447  1
  H  H41  1  0.08477062  0.19081026  0.15280727  1
  C  C42  1  0.25084272  0.18941897  0.12194474  1
  H  H43  1  0.34983915  0.20830919  0.08246021  1
  N  N44  1  0.18420502  0.20768993  0.38916227  1
  C  C45  1  0.24990349  0.09026966  0.31282670  1
  C  C46  1  0.14006364  0.09541609  0.43264864  1
  N  N47  1  0.42339856  0.04749775  0.18802642  1
  C  C48  1  0.31522860  0.21673859  0.12275916  1
  N  N49  1  0.05595026  0.05631466  0.09438192  1
  C  C50  1  0.17335084  0.16059057  0.04839935  1
  H  H51  1  0.37348751  0.22440462  0.42456620  1
  C  C52  1  0.26310421  0.04702531  0.05201636  1
  C  C53  1  0.07776597  0.18915935  0.19950551  1
  C  C54  1  0.07420186  0.16495028  0.32038720  1
  H  H55  1  0.40400524  0.04743646  0.14737222  1
  C  C56  1  0.23100498  0.13225283  0.29279805  1
  C  C57  1  0.22670299  0.15575557  0.07886835  1
  H  H58  1  0.43746183  0.10358180  0.25845695  1
  C  C59  1  0.47612757  0.22409997  0.41619937  1
  C  C60  1  0.31062941  0.06532749  0.09146058  1
  C  C61  1  0.29054510  0.07792157  0.15074346  1
  H  H62  1  0.15329726  0.00617339  0.40116331  1
  C  C63  1  0.03197375  0.14394468  0.28154183  1
  C  C64  1  0.19749944  0.08915749  0.42856374  1
  H  H65  1  0.21947361  0.06636754  0.33619416  1
  C  C66  1  0.19795113  0.04660919  0.06835087  1
  C  C67  1  0.10511171  0.06304134  0.13740539  1
  C  C68  1  0.49004142  0.07789650  0.42852311  1
  N  N69  1  0.46456695  0.22357383  0.22314961  1
  N  N70  1  0.07774135  0.06555044  0.19052599  1
  C  C71  1  0.43711323  0.10147178  0.45261092  1
  H  H72  1  0.18245870  0.14712658  0.30098060  1
  C  C73  1  0.24809590  0.23799174  0.11060932  1
  C  C74  1  0.35131240  0.22864269  0.17701219  1
  H  H75  1  0.39931626  0.19263780  0.37356559  1
  C  C76  1  0.36974585  0.08466389  0.44190764  1
  H  H77  1  0.15214670  0.23619474  0.22197283  1
  C  C78  1  0.11597166  0.16911228  0.01558439  1
  N  N79  1  0.45972156  0.23756748  0.12595557  1
  H  H80  1  0.27378214  0.03454604  0.00835598  1
  H  H81  1  0.47228300  0.02195961  0.28068789  1
  C  C82  1  0.05796204  0.00124889  0.44704145  1
  H  H83  1  0.34669406  0.24854663  0.26596385  1
  H  H84  1  0.47212330  0.04913083  0.18522938  1
  H  H85  1  0.23715992  0.17499449  0.48395178  1
  C  C86  1  0.31969626  0.24906041  0.22453100  1
  H  H87  1  0.01483540  0.24339724  0.23432921  1
  C  C88  1  0.27054399  0.20206372  0.49410481  1
  N  N89  1  0.37360711  0.01509859  0.93157331  1
  C  C90  1  0.39684384  0.15758614  0.79833224  1
  C  C91  1  0.12403120  0.16980989  0.57011068  1
  C  C92  1  0.18820727  0.14995959  0.59187253  1
  C  C93  1  0.26656244  0.06407891  0.81568850  1
  H  H94  1  0.33896699  0.20729670  0.67836494  1
  H  H95  1  0.12462487  0.08282840  0.92139938  1
  C  C96  1  0.26729546  0.09315173  0.58052635  1
  H  H97  1  0.28151820  0.14358658  0.71699169  1
  C  C98  1  0.34275953  0.22362352  0.82990618  1
  H  H99  1  0.32791726  0.04393596  0.65464360  1
  N  N100  1  0.08940985  0.19488921  0.60752963  1
  H  H101  1  0.46047861  0.10628341  0.78722884  1
  H  H102  1  0.13803517  0.09740035  0.69680491  1
  H  H103  1  0.04690139  0.04417416  0.54034176  1
  C  C104  1  0.26179422  0.11052247  0.81507529  1
  C  C105  1  0.47307599  0.02850168  0.55665362  1
  H  H106  1  0.33279286  0.07351743  0.71199520  1
  C  C107  1  0.26526856  0.13766267  0.67115890  1
  H  H108  1  0.06554139  0.01746919  0.67253943  1
  H  H109  1  0.40671105  0.14069895  0.70323352  1
  C  C110  1  0.21174703  0.11545665  0.55951267  1
  C  C111  1  0.08554119  0.04273396  0.57457276  1
  N  N112  1  0.33371161  0.07523499  0.66626365  1
  H  H113  1  0.21275413  0.02921293  0.91776037  1
  N  N114  1  0.02849859  0.09957910  0.77104295  1
  C  C115  1  0.11166591  0.04884461  0.92266360  1
  C  C116  1  0.41286868  0.00928015  0.56509548  1
  C  C117  1  0.35354543  0.20130432  0.72351708  1
  H  H118  1  0.35717588  0.05771842  0.85135774  1
  C  C119  1  0.18816320  0.04212829  0.66015665  1
  H  H120  1  0.00525687  0.09311176  0.90301148  1
  C  C121  1  0.16238528  0.01922088  0.91861811  1
  C  C122  1  0.21646384  0.16273576  0.64575718  1
  C  C123  1  0.13751095  0.07294039  0.66312065  1
  C  C124  1  0.38704243  0.16374790  0.73624048  1
  H  H125  1  0.44240427  0.11188484  0.85546015  1
  C  C126  1  0.03125761  0.14855565  0.95307956  1
  H  H127  1  0.28496180  0.06740274  0.55183184  1
  C  C128  1  0.20409977  0.13025579  0.80479471  1
  H  H129  1  0.47518516  0.05718691  0.52624167  1
  C  C130  1  0.34791165  0.18430429  0.98176741  1
  C  C131  1  0.28951998  0.10265133  0.63699357  1
  H  H132  1  0.38757837  0.18054986  0.88722806  1
  H  H133  1  0.19857640  0.16548108  0.80279623  1
  H  H134  1  0.32303591  0.24565313  0.86206864  1
  N  N135  1  0.04525739  0.19377940  0.51343827  1
  H  H136  1  0.19992753  0.19073975  0.66951965  1
  C  C137  1  0.44095543  0.01488230  0.92022486  1
  C  C138  1  0.18181286  0.01190707  0.61417036  1
  C  C139  1  0.35115194  0.23406321  0.55904735  1
  C  C140  1  0.14952054  0.10111870  0.79557475  1
  H  H141  1  0.44052572  0.07842098  0.64146403  1
  C  C142  1  0.31298753  0.19769747  0.54100915  1
  C  C143  1  0.47243548  0.15046172  0.95701051  1
  C  C144  1  0.15287242  0.05649561  0.80318914  1
  N  N145  1  0.03638859  0.10307527  0.62213176  1
  H  H146  1  0.46413083  0.04203634  0.74064823  1
  N  N147  1  0.02088649  0.16716998  0.74012361  1
  N  N148  1  0.35359210  0.05352126  0.94731123  1
  N  N149  1  0.42793858  0.12054574  0.81402265  1
  C  C150  1  0.37816357  0.18770242  0.84284808  1
  H  H151  1  0.30341154  0.12976973  0.82514666  1
  C  C152  1  0.21326071  0.03570343  0.80680094  1
  N  N153  1  0.39470388  0.23253576  0.60504518  1
  C  C154  1  0.04274075  0.20990491  0.57318611  1
  C  C155  1  0.13599495  0.23839098  0.90911692  1
  H  H156  1  0.22629364  0.04297407  0.69120577  1
  C  C157  1  0.08607572  0.12150631  0.77811968  1
  C  C158  1  0.08526218  0.07224641  0.62338967  1
  C  C159  1  0.02646062  0.24100266  0.87086959  1
  H  H160  1  0.37031765  0.01873783  0.53658763  1
  N  N161  1  0.32537612  0.04315582  0.82181459  1
  N  N162  1  0.46425284  0.05525314  0.92365671  1
  N  N163  1  0.08085902  0.16260887  0.76437885  1
  C  C164  1  0.46842515  0.19253144  0.97429272  1
  N  N165  1  0.09763842  0.16707203  0.51591345  1
  H  H166  1  0.10237192  0.20060703  0.99964815  1
  C  C167  1  0.33005835  0.22882971  0.76814699  1
  H  H168  1  0.18683950  0.22342085  0.91071954  1
  H  H169  1  0.18828096  0.10537675  0.51799144  1
  C  C170  1  0.40991044  0.07656257  0.94343162  1
  H  H171  1  0.10564451  0.19600503  0.84178693  1
  C  C172  1  0.09033579  0.22119157  0.87229978  1
  H  H173  1  0.31459763  0.16940054  0.56648508  1
  H  H174  1  0.00520331  0.21514487  0.68877712  1
  H  H175  1  0.29883508  0.19864372  0.99032784  1
  H  H176  1  0.10436437  0.04054054  0.80515636  1
  C  C177  1  0.04448642  0.03361676  0.92233633  1
  H  H178  1  0.31011361  0.11995243  0.96955178  1
  C  C179  1  0.35410285  0.13980468  0.97102437  1
  H  H180  1  0.02284202  0.11351358  0.58197865  1
  C  C181  1  0.41697299  0.12210099  0.95648800  1
  H  H182  1  0.40295480  0.20890893  0.63563609  1
  H  H183  1  0.04251889  0.13173325  0.64563806  1
  H  H184  1  0.08124455  0.24689015  0.77541060  1
  N  N185  1  0.47504441  0.10131091  0.65291664  1
  H  H186  1  0.47543659  0.20473582  0.76231713  1
  C  C187  1  0.13365243  0.01270137  0.56901268  1
  H  H188  1  0.49454990  0.10884139  0.61204017  1
  H  H189  1  0.21482057  0.24419472  0.60843799  1
  H  H190  1  0.32660494  0.01374929  0.83946484  1
  H  H191  1  0.21761301  0.00095802  0.80803321  1
  C  C192  1  0.07877574  0.13532590  0.99406229  1
  H  H193  1  0.41152535  0.15867759  0.50645994  1
  C  C194  1  0.40491105  0.20947890  0.98832411  1
  C  C195  1  0.09070260  0.47726467  0.41824236  1
  H  H196  1  0.31023650  0.49190298  0.07633104  1
  C  C197  1  0.23932391  0.44409105  0.08222124  1
  C  C198  1  0.21561642  0.40249126  0.07739260  1
  C  C199  1  0.30475655  0.36739977  0.38200554  1
  C  C200  1  0.31341681  0.27392644  0.47647644  1
  C  C201  1  0.19057770  0.36021358  0.34411956  1
  C  C202  1  0.03601305  0.42022228  0.04516283  1
  C  C203  1  0.36268227  0.43240651  0.07521793  1
  H  H204  1  0.13831391  0.28029516  0.12062166  1
  C  C205  1  0.32471025  0.35934773  0.08710182  1
  H  H206  1  0.46022401  0.41234569  0.27100942  1
  H  H207  1  0.34049159  0.32698351  0.09477661  1
  N  N208  1  0.28736096  0.37351377  0.44031703  1
  H  H209  1  0.28064930  0.48158775  0.49337338  1
  N  N210  1  0.27040487  0.45521058  0.37889643  1
  H  H211  1  0.42385962  0.37929110  0.09659789  1
  C  C212  1  0.25881706  0.36170648  0.33160336  1
  H  H213  1  0.44914850  0.43018036  0.42775398  1
  N  N214  1  0.22135207  0.27397652  0.37228896  1
  H  H215  1  0.11402734  0.43335319  0.22893415  1
  C  C216  1  0.27666530  0.49605731  0.39684099  1
  C  C217  1  0.15068248  0.36180501  0.29653959  1
  H  H218  1  0.11842624  0.41738156  0.38473684  1
  N  N219  1  0.37259541  0.36412910  0.37902868  1
  H  H220  1  0.09971487  0.30074176  0.45005329  1
  H  H221  1  0.14635626  0.29707750  0.19315825  1
  N  N222  1  0.11548118  0.32816738  0.47116455  1
  H  H223  1  0.19997314  0.46763868  0.08100787  1
  C  C224  1  0.07070189  0.39833708  0.01581844  1
  H  H225  1  0.10096874  0.37061831  0.02359499  1
  H  H226  1  0.23375459  0.44743676  0.18250070  1
  N  N227  1  0.13538651  0.37281494  0.19570822  1
  C  C228  1  0.12530842  0.43908832  0.42126122  1
  N  N229  1  0.10663941  0.45932107  0.19839687  1
  H  H230  1  0.31832258  0.30240719  0.44610431  1
  C  C231  1  0.25749258  0.26761750  0.21798413  1
  H  H232  1  0.12438448  0.44378305  0.16029663  1
  C  C233  1  0.03624491  0.46769116  0.06688792  1
  H  H234  1  0.03864763  0.31331808  0.10684590  1
  H  H235  1  0.17319728  0.36192932  0.38952232  1
  C  C236  1  0.34370378  0.37473322  0.46912094  1
  N  N237  1  0.41697685  0.45785165  0.06253073  1
  C  C238  1  0.49163933  0.25270897  0.46369255  1
  H  H239  1  0.26579012  0.37233578  0.17917986  1
  N  N240  1  0.16737346  0.28240164  0.15690946  1
  C  C241  1  0.22437054  0.26293319  0.16363801  1
  H  H242  1  0.42125591  0.25895310  0.04624003  1
  C  C243  1  0.18170236  0.36532879  0.23918030  1
  C  C244  1  0.28641677  0.36360015  0.27440066  1
  H  H245  1  0.23632104  0.28540784  0.25348514  1
  C  C246  1  0.25574062  0.36497227  0.07376325  1
  H  H247  1  0.14748742  0.36050634  0.15625682  1
  C  C248  1  0.37622522  0.38896267  0.08384903  1
  C  C249  1  0.24871522  0.36768429  0.22490195  1
  C  C250  1  0.47044446  0.47846430  0.37762517  1
  H  H251  1  0.34674115  0.46080821  0.30657091  1
  C  C252  1  0.04092285  0.47673487  0.36797710  1
  H  H253  1  0.09666182  0.36370473  0.29930063  1
  H  H254  1  0.25795036  0.43457380  0.41262683  1
  H  H255  1  0.16286302  0.39641158  0.07294779  1
  C  C256  1  0.30472398  0.45767756  0.07835456  1
  C  C257  1  0.16503801  0.43174842  0.47175420  1
  H  H258  1  0.08102658  0.35225159  0.46620345  1
  H  H259  1  0.33944124  0.36508311  0.27138025  1
  H  H260  1  0.34340398  0.41796571  0.16830419  1
  N  N261  1  0.09530605  0.48016767  0.05460749  1
  N  N262  1  0.39774899  0.37126890  0.43205219  1
  C  C263  1  0.47951564  0.39185885  0.23519061  1
  H  H264  1  0.08732824  0.36521802  0.20338421  1
  N  N265  1  0.03325043  0.43638773  0.34812522  1
  C  C266  1  0.34370492  0.43332887  0.21473055  1
  C  C267  1  0.34709417  0.44771966  0.26284899  1
  H  H268  1  0.42927122  0.34386952  0.32442483  1
  C  C269  1  0.15886054  0.48399030  0.22673082  1
  H  H270  1  0.25568580  0.44344186  0.33870718  1
  N  N271  1  0.45568156  0.46225002  0.43351749  1
  C  C272  1  0.22353478  0.47735366  0.20216075  1
  H  H273  1  0.46165693  0.44817271  0.07914479  1
  H  H274  1  0.18712749  0.40057154  0.47643461  1
  N  N275  1  0.16915171  0.31684537  0.02802441  1
  H  H276  1  0.41616049  0.48788173  0.08019799  1
  C  C277  1  0.23168596  0.32708381  0.04145419  1
  H  H278  1  0.00901941  0.36266167  0.37651762  1
  Cu  Cu279  1  0.01344621  0.47710880  0.18813308  1
  C  C280  1  0.49135878  0.32194248  0.19008705  1
  H  H281  1  0.42623111  0.30066149  0.29368598  1
  C  C282  1  0.47110393  0.34742651  0.23882396  1
  H  H283  1  0.41343338  0.47231557  0.44894384  1
  N  N284  1  0.18331660  0.26371360  0.32692083  1
  N  N285  1  0.45214102  0.32759533  0.29055222  1
  N  N286  1  0.40023860  0.25451807  0.00404673  1
  H  H287  1  0.35091448  0.25291716  0.01662494  1
  H  H288  1  0.44816987  0.26808771  0.48390866  1
  H  H289  1  0.48697415  0.28807072  0.19660483  1
  C  C290  1  0.48925281  0.49947603  0.26045862  1
  H  H291  1  0.23785970  0.25124209  0.06574637  1
  Cu  Cu292  1  0.30192232  0.40558445  0.00153165  1
  N  N293  1  0.27757261  0.30436817  0.00828068  1
  C  C294  1  0.22623648  0.30275733  0.69815464  1
  H  H295  1  0.13248834  0.26696030  0.72559470  1
  C  C296  1  0.37229240  0.36833894  0.89665424  1
  H  H297  1  0.21165246  0.41537947  0.94851945  1
  H  H298  1  0.40988979  0.26133147  0.62045645  1
  N  N299  1  0.24295368  0.27862184  0.97371160  1
  N  N300  1  0.23260823  0.32400329  0.75208671  1
  C  C301  1  0.05391935  0.40037113  0.68132327  1
  H  H302  1  0.00945830  0.33424225  0.61107333  1
  H  H303  1  0.23348063  0.42762192  0.56078161  1
  Cu  Cu304  1  0.19271129  0.37935715  0.79817842  1
  C  C305  1  0.34923438  0.27255228  0.52675090  1
  C  C306  1  0.02146535  0.44443720  0.52920315  1
  C  C307  1  0.49416823  0.32447009  0.65570636  1
  H  H308  1  0.44624305  0.41536295  0.52276378  1
  H  H309  1  0.37591198  0.48062404  0.69972450  1
  H  H310  1  0.06190456  0.28701595  0.73937923  1
  C  C311  1  0.19624415  0.30826357  0.63878451  1
  N  N312  1  0.22409068  0.45948429  0.55562544  1
  C  C313  1  0.28527718  0.26378513  0.75240891  1
  N  N314  1  0.38623499  0.36849396  0.84596214  1
  H  H315  1  0.21475149  0.47167985  0.59800993  1
  C  C316  1  0.36769113  0.39126613  0.65226572  1
  H  H317  1  0.16239932  0.37461166  0.65851992  1
  N  N318  1  0.37592196  0.39556117  0.71596591  1
  N  N319  1  0.26920931  0.29947946  0.78573186  1
  N  N320  1  0.36728518  0.47937982  0.93687980  1
  C  C321  1  0.35118036  0.38064353  0.53424894  1
  C  C322  1  0.14238550  0.32139719  0.52779246  1
  C  C323  1  0.07970079  0.45702736  0.81044303  1
  C  C324  1  0.26988645  0.44454781  0.76676135  1
  N  N325  1  0.27033821  0.41942753  0.80228246  1
  C  C326  1  0.07258926  0.42409736  0.76626208  1
  N  N327  1  0.35674591  0.36875055  0.95116437  1
  Cu  Cu328  1  0.26091829  0.36090238  0.91578843  1
  H  H329  1  0.38074624  0.29793976  0.54339959  1
  N  N330  1  0.48475596  0.45402124  0.89946803  1
  Cu  Cu331  1  0.21088805  0.44573178  0.86339201  1
  C  C332  1  0.49998344  0.45912558  0.79540177  1
  C  C333  1  0.04830426  0.44070233  0.58474276  1
  Cu  Cu334  1  0.32165935  0.36700005  0.77775505  1
  H  H335  1  0.40752637  0.27947372  0.72568035  1
  H  H336  1  0.08740480  0.47431972  0.95764816  1
  C  C337  1  0.01707936  0.36428586  0.58826913  1
  C  C338  1  0.19550701  0.27513156  0.59705191  1
  H  H339  1  0.13690503  0.36709438  0.89098836  1
  Cu  Cu340  1  0.39931844  0.30770293  0.82300411  1
  C  C341  1  0.46127839  0.46492949  0.84983529  1
  H  H342  1  0.26138152  0.34725603  0.55457082  1
  C  C343  1  0.17146624  0.28157133  0.54082523  1
  C  C344  1  0.16680948  0.34866739  0.62750538  1
  C  C345  1  0.26970642  0.47698837  0.72108965  1
  H  H346  1  0.02153603  0.47320877  0.50348732  1
  H  H347  1  0.36556075  0.42422333  0.73435265  1
  C  C348  1  0.41135374  0.40051753  0.55536474  1
  C  C349  1  0.12220797  0.26954198  0.95243530  1
  C  C350  1  0.04075869  0.40196136  0.61646141  1
  H  H351  1  0.44720582  0.32844899  0.63168349  1
  H  H352  1  0.46697121  0.41748537  0.63341948  1
  Cu  Cu353  1  0.44322384  0.38580322  0.98764614  1
  H  H354  1  0.17237534  0.32772832  0.90661821  1
  Cu  Cu355  1  0.44631926  0.46607438  0.96841454  1
  N  N356  1  0.40503263  0.48475087  0.84009211  1
  C  C357  1  0.14294525  0.35535121  0.57079719  1
  N  N358  1  0.25928926  0.26589410  0.69798594  1
  N  N359  1  0.06957524  0.38033296  0.77102814  1
  H  H360  1  0.26979476  0.36300596  0.66316689  1
  H  H361  1  0.40435308  0.33074126  0.71844978  1
  C  C362  1  0.17737393  0.28640453  0.98554842  1
  C  C363  1  0.31171714  0.36961193  0.63408918  1
  C  C364  1  0.41850628  0.40402971  0.61555485  1
  H  H365  1  0.09001134  0.41346432  0.88807714  1
  H  H366  1  0.06637109  0.46872906  0.60532961  1
  C  C367  1  0.05791574  0.28851118  0.94999277  1
  H  H368  1  0.42425216  0.39676957  0.72256964  1
  C  C369  1  0.08194920  0.44515616  0.87174645  1
  H  H370  1  0.04553708  0.31452426  0.97671473  1
  N  N371  1  0.42922963  0.30782816  0.73874622  1
  Cu  Cu372  1  0.33140811  0.42511631  0.87165127  1
  Cu  Cu373  1  0.27559894  0.47778215  0.96099761  1
  N  N374  1  0.25570280  0.42248670  0.93099529  1
  N  N375  1  0.17568391  0.35048694  0.87444337  1
  N  N376  1  0.05318375  0.36534975  0.71835879  1
  Cu  Cu377  1  0.14150527  0.31139437  0.81890624  1
  Cu  Cu378  1  0.48330069  0.36708580  0.87126399  1
  Cu  Cu379  1  0.45049675  0.27708848  0.90694663  1
  C  C380  1  0.30382763  0.36189092  0.57311460  1
  C  C381  1  0.01152695  0.27638544  0.90930208  1
  C  C382  1  0.17562971  0.46596860  0.51193452  1
  C  C383  1  0.36266602  0.49042015  0.88295303  1
  N  N384  1  0.10324908  0.27407289  0.76114418  1
  H  H385  1  0.12734537  0.38713883  0.55681120  1
  N  N386  1  0.06246357  0.43628861  0.70837263  1
  H  H387  1  0.16489035  0.47993820  0.73580931  1
  C  C388  1  0.49129560  0.49385246  0.75503921  1
  C  C389  1  0.08780171  0.47911098  0.91030096  1
  C  C390  1  0.20716589  0.49667809  0.71378203  1
  C  C391  1  0.49582066  0.31347318  0.71665488  1
  Cu  Cu392  1  0.37652898  0.31407147  0.98435197  1
  C  C393  1  0.32808073  0.49554064  0.69304902  1
  H  H394  1  0.17733310  0.25386145  0.51074670  1
  H  H395  1  0.38711696  0.63077602  0.05834593  1
  Cu  Cu396  1  0.21707449  0.70931411  0.17634274  1
  C  C397  1  0.28534517  0.52565080  0.34905499  1
  C  C398  1  0.17020258  0.54004561  0.05164737  1
  C  C399  1  0.21204521  0.54666768  0.09914163  1
  C  C400  1  0.10135358  0.52038573  0.06620974  1
  C  C401  1  0.29022519  0.50637309  0.45724380  1
  C  C402  1  0.29786435  0.56683949  0.02968831  1
  C  C403  1  0.18511083  0.55524511  0.25908122  1
  C  C404  1  0.27813152  0.55724246  0.08769600  1
  H  H405  1  0.31035147  0.56348043  0.12597330  1
  C  C406  1  0.15095809  0.67092797  0.45743176  1
  Cu  Cu407  1  0.08190473  0.60047485  0.10003790  1
  H  H408  1  0.05767517  0.72271607  0.16022029  1
  C  C409  1  0.08365222  0.62612571  0.29450147  1
  Cu  Cu410  1  0.41607341  0.67121214  0.44437374  1
  N  N411  1  0.47213858  0.61415534  0.35274468  1
  C  C412  1  0.08036262  0.68260606  0.37488023  1
  H  H413  1  0.46205013  0.59243712  0.31933331  1
  H  H414  1  0.31361272  0.50610328  0.18405117  1
  C  C415  1  0.09927865  0.51281930  0.45799533  1
  H  H416  1  0.19319468  0.54074484  0.14342931  1
  Cu  Cu417  1  0.39256256  0.64572168  0.33247774  1
  Cu  Cu418  1  0.40438822  0.70417536  0.14826878  1
  C  C419  1  0.30740894  0.57957548  0.42514228  1
  C  C420  1  0.18716937  0.65887957  0.06545931  1
  C  C421  1  0.09715861  0.64094606  0.20281152  1
  H  H422  1  0.08847990  0.72733320  0.44623338  1
  C  C423  1  0.32054434  0.62383563  0.44195558  1
  N  N424  1  0.42991535  0.52866129  0.16847961  1
  C  C425  1  0.14438533  0.61466159  0.38997878  1
  C  C426  1  0.17237525  0.63003940  0.44103192  1
  C  C427  1  0.44154618  0.66534074  0.24544732  1
  H  H428  1  0.21887450  0.63877023  0.03767230  1
  H  H429  1  0.16869666  0.58568774  0.27827982  1
  N  N430  1  0.05736141  0.58812306  0.29498717  1
  N  N431  1  0.07061802  0.60643335  0.17887722  1
  Cu  Cu432  1  0.30605276  0.68012564  0.09096991  1
  H  H433  1  0.20992479  0.61250991  0.46807261  1
  C  C434  1  0.45543461  0.58486926  0.45591179  1
  H  H435  1  0.32150462  0.58709620  0.33055204  1
  N  N436  1  0.28522815  0.62817723  0.23424192  1
  C  C437  1  0.09463101  0.70604131  0.13638560  1
  N  N438  1  0.05977330  0.54691840  0.08705908  1
  H  H439  1  0.10034779  0.51918639  0.28942381  1
  N  N440  1  0.10356925  0.65785572  0.25816790  1
  C  C441  1  0.12590501  0.66838779  0.15444825  1
  Cl  Cl442  1  0.45705026  0.73670929  0.28551669  1
  N  N443  1  0.33305434  0.65640175  0.39940707  1
  H  H444  1  0.40465753  0.56683496  0.02970374  1
  H  H445  1  0.01846567  0.67443633  0.09248854  1
  C  C446  1  0.24783017  0.55117171  0.23103971  1
  H  H447  1  0.44454557  0.64632929  0.09824164  1
  C  C448  1  0.01586687  0.61804012  0.48632968  1
  C  C449  1  0.28570027  0.58920176  0.22174227  1
  Cu  Cu450  1  0.29526767  0.70992884  0.42481540  1
  Cu  Cu451  1  0.27266439  0.64387001  0.34084134  1
  C  C452  1  0.14983802  0.69487302  0.04356734  1
  C  C453  1  0.30177466  0.56718511  0.36411333  1
  C  C454  1  0.26584109  0.51148388  0.20365274  1
  N  N455  1  0.45194157  0.54276586  0.11741246  1
  C  C456  1  0.48339735  0.51051327  0.19625121  1
  H  H457  1  0.28207363  0.51748403  0.30149386  1
  N  N458  1  0.49702870  0.69167371  0.48526132  1
  N  N459  1  0.31333049  0.71110338  0.16330497  1
  H  H460  1  0.49222447  0.66721782  0.24278915  1
  N  N461  1  0.02117268  0.51249251  0.34692623  1
  N  N462  1  0.23983766  0.70232614  0.33475467  1
  Cu  Cu463  1  0.32806543  0.69028680  0.24388163  1
  C  C464  1  0.17943665  0.64703183  0.12380675  1
  H  H465  1  0.40586254  0.59572068  0.45755061  1
  H  H466  1  0.20900320  0.62211276  0.14593826  1
  C  C467  1  0.10364135  0.64262544  0.35651581  1
  C  C468  1  0.39929864  0.64105410  0.22915329  1
  C  C469  1  0.10349215  0.69676294  0.42784627  1
  C  C470  1  0.34303518  0.61831477  0.21379330  1
  C  C471  1  0.43264190  0.51192629  0.35283747  1
  Cu  Cu472  1  0.13582752  0.71552419  0.27239472  1
  C  C473  1  0.10683119  0.71988733  0.07800101  1
  N  N474  1  0.26843745  0.72200814  0.29525591  1
  C  C475  1  0.49403977  0.58944136  0.40391153  1
  N  N476  1  0.40076290  0.65927024  0.08125638  1
  H  H477  1  0.15964019  0.58386981  0.37099390  1
  H  H478  1  0.06780793  0.54163356  0.45578475  1
  H  H479  1  0.42071072  0.67770966  0.04788313  1
  H  H480  1  0.39558238  0.52968235  0.37655297  1
  C  C481  1  0.44206949  0.52324329  0.29395039  1
  H  H482  1  0.41377023  0.54735418  0.27422109  1
  C  C483  1  0.30198574  0.54765385  0.47080740  1
  C  C484  1  0.14462469  0.52088705  0.26192565  1
  Cu  Cu485  1  0.03145676  0.56900533  0.36590398  1
  H  H486  1  0.04585998  0.70278179  0.35052189  1
  H  H487  1  0.00158593  0.67503210  0.23945446  1
  Cu  Cu488  1  0.18360536  0.74423055  0.37120320  1
  N  N489  1  0.30401505  0.71544934  0.01870155  1
  Cu  Cu490  1  0.03513582  0.55990633  0.22263830  1
  H  H491  1  0.07951102  0.74747963  0.06065082  1
  H  H492  1  0.01367669  0.63904776  0.44557536  1
  H  H493  1  0.37869857  0.74790314  0.05894894  1
  N  N494  1  0.36127752  0.57507631  0.01118905  1
  N  N495  1  0.31875051  0.62433384  0.49934937  1
  H  H496  1  0.01659232  0.53571011  0.61927758  1
  H  H497  1  0.06418303  0.56571810  0.81602041  1
  C  C498  1  0.19100659  0.54748526  0.99234701  1
  N  N499  1  0.24808764  0.57567785  0.60326213  1
  H  H500  1  0.30274031  0.72071188  0.62143463  1
  H  H501  1  0.26377991  0.70394235  0.99713850  1
  H  H502  1  0.21046980  0.63663252  0.72641089  1
  C  C503  1  0.38197751  0.65272604  0.86938103  1
  C  C504  1  0.44142215  0.66579633  0.90347791  1
  H  H505  1  0.28556636  0.59502381  0.58981036  1
  N  N506  1  0.49363982  0.69633189  0.97587260  1
  C  C507  1  0.06937752  0.53262886  0.83020963  1
  C  C508  1  0.29373624  0.50682637  0.86848114  1
  H  H509  1  0.06259381  0.58566289  0.92026982  1
  C  C510  1  0.19734682  0.52612655  0.67096746  1
  H  H511  1  0.22751117  0.58936118  0.73599506  1
  H  H512  1  0.19263106  0.53622526  0.84745684  1
  N  N513  1  0.08103545  0.55572993  0.92887702  1
  N  N514  1  0.00249736  0.66084126  0.72151513  1
  H  H515  1  0.35021807  0.71775452  0.85642719  1
  H  H516  1  0.20838418  0.59446743  0.59812960  1
  H  H517  1  0.16597363  0.72370271  0.50855226  1
  C  C518  1  0.33873860  0.68460966  0.84831867  1
  C  C519  1  0.35482664  0.66432914  0.59045780  1
  C  C520  1  0.07751640  0.50051979  0.78933086  1
  H  H521  1  0.15725886  0.54464063  0.95296848  1
  H  H522  1  0.26240600  0.69696775  0.78579246  1
  C  C523  1  0.25303461  0.54264134  0.64070379  1
  H  H524  1  0.16805970  0.68557599  0.94888171  1
  C  C525  1  0.07513377  0.69531743  0.79574166  1
  C  C526  1  0.05951491  0.59430650  0.58102731  1
  N  N527  1  0.23290549  0.61781977  0.75602131  1
  H  H528  1  0.45720810  0.56787208  0.54931712  1
  N  N529  1  0.03745324  0.59322663  0.73476531  1
  H  H530  1  0.09388704  0.59092902  0.66645389  1
  N  N531  1  0.15124638  0.70225995  0.98368920  1
  C  C532  1  0.13536180  0.68820021  0.82779638  1
  C  C533  1  0.32464104  0.59683542  0.81532864  1
  C  C534  1  0.31930548  0.52814694  0.65469961  1
  Cu  Cu535  1  0.43042177  0.70899139  0.54135399  1
  H  H536  1  0.10797507  0.63375452  0.63549878  1
  H  H537  1  0.11895335  0.72450154  0.96874034  1
  H  H538  1  0.16222001  0.65752548  0.82027208  1
  H  H539  1  0.26801315  0.56571754  0.93470035  1
  N  N540  1  0.45201247  0.66037045  0.75042799  1
  C  C541  1  0.29163743  0.67348006  0.80819896  1
  C  C542  1  0.32701431  0.66332216  0.52726199  1
  N  N543  1  0.10671701  0.60255454  0.62566230  1
  C  C544  1  0.37675187  0.69709547  0.68331364  1
  H  H545  1  0.34303167  0.70511897  0.99655261  1
  N  N546  1  0.07303259  0.61747962  0.77026809  1
  C  C547  1  0.24283038  0.52262349  0.85716270  1
  N  N548  1  0.17293560  0.69044623  0.50810939  1
  H  H549  1  0.01217471  0.65533462  0.93960316  1
  H  H550  1  0.30570980  0.55589581  0.51740759  1
  H  H551  1  0.03857364  0.67964614  0.99462291  1
  H  H552  1  0.32235051  0.56244777  0.80188092  1
  H  H553  1  0.44023749  0.67928935  0.78500626  1
  H  H554  1  0.45964394  0.63240986  0.76874150  1
  C  C555  1  0.28092974  0.62913497  0.79386258  1
  H  H556  1  0.07397915  0.50623150  0.74135351  1
  H  H557  1  0.15194378  0.53264091  0.53634603  1
  C  C558  1  0.15811374  0.71958552  0.86586628  1
  C  C559  1  0.37393430  0.60872512  0.85325716  1
  H  H560  1  0.14743983  0.53873594  0.65670516  1
  H  H561  1  0.41056035  0.58649427  0.87007552  1
  H  H562  1  0.21866320  0.68322123  0.52266812  1
  H  H563  1  0.47565289  0.52329151  0.77317247  1
  H  H564  1  0.37014406  0.57011121  0.96805416  1
  C  C565  1  0.39296203  0.62888829  0.60650364  1
  C  C566  1  0.04918136  0.65819490  0.76371566  1
  H  H567  1  0.39579669  0.60236337  0.57528733  1
  C  C568  1  0.43009140  0.62717780  0.65841242  1
  H  H569  1  0.09694257  0.64773374  0.53148032  1
  C  C570  1  0.25364161  0.56159682  0.98031568  1
  C  C571  1  0.08053321  0.52191758  0.89003594  1
  C  C572  1  0.41885130  0.66307502  0.69616081  1
  N  N573  1  0.43553920  0.68098287  0.96063001  1
  H  H574  1  0.46601001  0.60206315  0.67271421  1
  H  H575  1  0.36347206  0.72083780  0.71587659  1
  H  H576  1  0.36210447  0.54083983  0.63313218  1
  C  C577  1  0.06139983  0.62218652  0.52948984  1
  C  C578  1  0.33988519  0.69787441  0.63082230  1
  H  H579  1  0.20646521  0.71533860  0.88547479  1
  N  N580  1  0.02461533  0.65007160  0.98133441  1
  C  C581  1  0.48227318  0.56753853  0.50553048  1
  C  C582  1  0.14349418  0.50688727  0.50467429  1
  C  C583  1  0.04049391  0.73478450  0.79988434  1
  C  C584  1  0.01703490  0.55930230  0.58337245  1
  N  N585  1  0.31853358  0.70030873  0.50273999  1
  H  H586  1  0.07208219  0.54994093  0.97127049  1
  N  N587  1  0.22219697  0.89840106  0.24139547  1
  C  C588  1  0.17565125  0.92761258  0.22394554  1
  H  H589  1  0.25078780  0.96550917  0.26237396  1
  C  C590  1  0.11711035  0.94000126  0.26005877  1
  C  C591  1  0.25864094  0.89219363  0.19298299  1
  C  C592  1  0.40531808  0.79355991  0.12263982  1
  N  N593  1  0.18814393  0.94041898  0.16777040  1
  C  C594  1  0.29229623  0.76030832  0.00480247  1
  C  C595  1  0.31149780  0.86022996  0.18300254  1
  H  H596  1  0.43200673  0.92021106  0.26027938  1
  C  C597  1  0.44162672  0.95362766  0.03627111  1
  Cl  Cl598  1  0.44650454  0.76735997  0.43749739  1
  H  H599  1  0.29577717  0.87238761  0.09141972  1
  N  N600  1  0.22012104  0.76978760  0.18919222  1
  C  C601  1  0.23603228  0.82587984  0.01952402  1
  H  H602  1  0.06574697  0.82156673  0.06843553  1
  N  N603  1  0.23781447  0.91691986  0.14621352  1
  Cu  Cu604  1  0.31177691  0.77097075  0.16884374  1
  C  C605  1  0.42863573  0.79351487  0.18306943  1
  C  C606  1  0.24112306  0.78356499  0.03330498  1
  C  C607  1  0.10232002  0.92131292  0.48513062  1
  N  N608  1  0.41367628  0.75427088  0.09105025  1
  C  C609  1  0.18802183  0.79006841  0.47061861  1
  C  C610  1  0.05046472  0.93597198  0.34979309  1
  H  H611  1  0.26511781  0.85583095  0.29784769  1
  H  H612  1  0.45708866  0.95008508  0.20914296  1
  C  C613  1  0.49531953  0.89239634  0.45074582  1
  Cu  Cu614  1  0.23376621  0.77889766  0.27385762  1
  N  N615  1  0.23136470  0.96276371  0.38099504  1
  C  C616  1  0.32271457  0.85343106  0.12289394  1
  H  H617  1  0.41915432  0.98603317  0.36677588  1
  C  C618  1  0.10344874  0.92279966  0.31765961  1
  C  C619  1  0.38517649  0.94458829  0.07151996  1
  N  N620  1  0.43092788  0.89375668  0.45264890  1
  C  C621  1  0.24640271  0.79130770  0.42549552  1
  C  C622  1  0.39290787  0.94269603  0.13491712  1
  N  N623  1  0.32526761  0.93858983  0.04577020  1
  C  C624  1  0.36542397  0.82506690  0.09659800  1
  N  N625  1  0.24872683  0.90578087  0.44209573  1
  H  H626  1  0.00763612  0.85946523  0.03589500  1
  C  C627  1  0.21076389  0.93644553  0.42469278  1
  C  C628  1  0.10826106  0.88359094  0.09589958  1
  H  H629  1  0.09912273  0.85209240  0.19192101  1
  C  C630  1  0.30952278  0.83669342  0.28929738  1
  Cu  Cu631  1  0.35705638  0.80773809  0.45640377  1
  H  H632  1  0.43009053  0.81151086  0.27361894  1
  H  H633  1  0.14657868  0.89576628  0.12301823  1
  H  H634  1  0.47559172  0.87401302  0.17599661  1
  H  H635  1  0.35039722  0.93272629  0.16186358  1
  C  C636  1  0.45305948  0.95043885  0.16079488  1
  C  C637  1  0.10439449  0.79718494  0.29054521  1
  C  C638  1  0.40156811  0.81491090  0.23240470  1
  Cu  Cu639  1  0.25335932  0.85912529  0.48913761  1
  H  H640  1  0.13896456  0.89901337  0.33365126  1
  H  H641  1  0.37238910  0.82591139  0.04714963  1
  H  H642  1  0.28255837  0.93741674  0.06874201  1
  C  C643  1  0.14516920  0.81574078  0.13016818  1
  C  C644  1  0.29359975  0.94844487  0.36863478  1
  C  C645  1  0.06036808  0.83194824  0.27369859  1
  N  N646  1  0.14097541  0.77179149  0.30363882  1
  H  H647  1  0.08174261  0.98616488  0.19769201  1
  C  C648  1  0.18245263  0.79305685  0.15952606  1
  C  C649  1  0.47034285  0.90233217  0.28371115  1
  N  N650  1  0.31272591  0.91536713  0.39900520  1
  C  C651  1  0.03022755  0.84062497  0.43837364  1
  C  C652  1  0.28709434  0.79936253  0.37929114  1
  H  H653  1  0.45868409  0.75507246  0.06689572  1
  C  C654  1  0.10020512  0.83889923  0.09555462  1
  H  H655  1  0.20043140  0.84434910  0.04210039  1
  C  C656  1  0.33666006  0.83507217  0.23214620  1
  H  H657  1  0.07237475  0.94873909  0.06647217  1
  C  C658  1  0.14180559  0.94683186  0.44800973  1
  Cu  Cu659  1  0.37926425  0.87465462  0.39120859  1
  C  C660  1  0.07177537  0.97076262  0.24061315  1
  N  N661  1  0.24588156  0.77894079  0.48178466  1
  C  C662  1  0.00677759  0.96777637  0.32749215  1
  H  H663  1  0.12231298  0.83058639  0.39146780  1
  H  H664  1  0.36858505  0.78416618  0.32237925  1
  C  C665  1  0.32858673  0.80623469  0.33276787  1
  C  C666  1  0.32974794  0.97257024  0.32134139  1
  C  C667  1  0.00300709  0.83227024  0.30937352  1
  C  C668  1  0.06773059  0.91273487  0.06251438  1
  H  H669  1  0.47555703  0.77781572  0.18881572  1
  C  C670  1  0.05903026  0.85770188  0.22075561  1
  C  C671  1  0.09434216  0.82555032  0.43127298  1
  C  C672  1  0.39560824  0.98827567  0.32568238  1
  H  H673  1  0.04614080  0.92555851  0.39479133  1
  C  C674  1  0.47522295  0.90049057  0.34061035  1
  C  C675  1  0.11865660  0.98690478  0.42967251  1
  C  C676  1  0.12401441  0.80487321  0.48099303  1
  C  C677  1  0.01709924  0.97537032  0.48513237  1
  C  C678  1  0.29949263  0.98053917  0.26684069  1
  H  H679  1  0.01836683  0.76462427  0.23763381  1
  H  H680  1  0.20862125  0.76691833  0.06520104  1
  H  H681  1  0.00973479  0.90863167  0.17221717  1
  C  C682  1  0.01918866  0.98681139  0.27260016  1
  C  C683  1  0.01535415  0.89371105  0.03308472  1
  H  H684  1  0.00884071  0.85708953  0.40373718  1
  C  C685  1  0.00958069  0.88563991  0.20798092  1
  H  H686  1  0.31410602  0.94416294  0.00283392  1
  H  H687  1  0.11532110  0.88897014  0.49848784  1
  H  H688  1  0.15903031  0.93866186  0.58958715  1
  Cu  Cu689  1  0.31198002  0.75508379  0.53649833  1
  C  C690  1  0.32767993  0.82285829  0.67836313  1
  C  C691  1  0.08575337  0.86559374  0.81599843  1
  C  C692  1  0.07830429  0.84659325  0.75892312  1
  N  N693  1  0.47193789  0.75796907  0.56969576  1
  C  C694  1  0.47884560  0.97703607  0.90522464  1
  H  H695  1  0.41968673  0.79372517  0.81947472  1
  N  N696  1  0.19476499  0.77201319  0.76850418  1
  C  C697  1  0.29938517  0.81379659  0.62120876  1
  H  H698  1  0.19439717  0.87413663  0.81332727  1
  Cu  Cu699  1  0.25857518  0.88852954  0.59482213  1
  C  C700  1  0.27282889  0.84217254  0.97069177  1
  C  C701  1  0.33288562  0.77889249  0.96222814  1
  C  C702  1  0.33916056  0.95736984  0.60876595  1
  C  C703  1  0.43646648  0.81335048  0.85660158  1
  C  C704  1  0.23299798  0.78589934  0.72266592  1
  H  H705  1  0.03189058  0.79401031  0.84842937  1
  N  N706  1  0.49141479  0.84926162  0.59265714  1
  C  C707  1  0.20600332  0.94361309  0.92774362  1
  C  C708  1  0.32128424  0.81955055  0.93858307  1
  N  N709  1  0.26692974  0.94576963  0.90023067  1
  H  H710  1  0.08374774  0.92376695  0.92661056  1
  N  N711  1  0.20600444  0.93731938  0.59579129  1
  C  C712  1  0.23998633  0.78877111  0.61715113  1
  H  H713  1  0.31014700  0.81483393  0.77225559  1
  C  C714  1  0.29468249  0.80810933  0.72665504  1
  H  H715  1  0.09750059  0.93346010  0.77929161  1
  C  C716  1  0.40771380  0.97664348  0.60833755  1
  H  H717  1  0.15424180  0.75518873  0.76882933  1
  C  C718  1  0.48466168  0.90363736  0.87919377  1
  C  C719  1  0.02452219  0.80811463  0.54312443  1
  N  N720  1  0.33386771  0.91815081  0.60164895  1
  C  C721  1  0.32382004  0.83202470  0.56861034  1
  C  C722  1  0.03140095  0.96650949  0.72385661  1
  C  C723  1  0.03441064  0.98739500  0.92429662  1
  N  N724  1  0.14684049  0.88312816  0.82554448  1
  H  H725  1  0.20812477  0.77367059  0.81033940  1
  C  C726  1  0.01465125  0.83487111  0.74485393  1
  H  H727  1  0.17572324  0.78556266  0.93346273  1
  Cu  Cu728  1  0.43159965  0.81158167  0.55548846  1
  N  N729  1  0.34465242  0.84739819  0.52582702  1
  C  C730  1  0.03655251  0.86809313  0.86118378  1
  N  N731  1  0.09108850  0.95655764  0.74849908  1
  H  H732  1  0.44971104  0.93827117  0.67767251  1
  H  H733  1  0.36942496  0.84415678  0.68080952  1
  H  H734  1  0.11876167  0.84144715  0.72889410  1
  C  C735  1  0.46063634  0.96238368  0.64346255  1
  C  C736  1  0.08597326  0.95958958  0.92550725  1
  H  H737  1  0.11588549  0.78068617  0.57085097  1
  H  H738  1  0.46157745  0.87342245  0.86598470  1
  Cl  Cl739  1  0.40490182  0.85880972  0.77491112  1
  N  N740  1  0.19889958  0.90546197  0.95592556  1
  C  C741  1  0.25928291  0.88664513  0.94796231  1
  C  C742  1  0.15269558  0.97375721  0.92378006  1
  Cu  Cu743  1  0.41681336  0.89225230  0.60378647  1
  H  H744  1  0.16327897  0.75570059  0.66294225  1
  C  C745  1  0.08827081  0.79573651  0.53642654  1
  H  H746  1  0.39097253  0.93483399  0.89319881  1
  H  H747  1  0.13403143  0.99061084  0.52816853  1
  C  C748  1  0.22925410  0.97457949  0.60962693  1
  H  H749  1  0.21704560  0.78081221  0.57339008  1
  C  C750  1  0.02079237  0.99912620  0.68196668  1
  H  H751  1  0.13847995  0.96330514  0.73493630  1
  H  H752  1  0.11694587  0.81436867  0.92138919  1
  H  H753  1  0.34704568  0.83640236  0.90164930  1
  H  H754  1  0.15751046  0.89762475  0.86379597  1
  N  N755  1  0.13107138  0.78398416  0.91871736  1
  N  N756  1  0.30063430  0.91149894  0.91566138  1
  N  N757  1  0.29187538  0.98549296  0.61551483  1
  C  C758  1  0.45859277  0.80773610  0.90620888  1
  H  H759  1  0.43524167  0.95216394  0.98937223  1
  C  C760  1  0.20794456  0.77596326  0.66594959  1
  H  H761  1  0.36580067  0.75738408  0.93757362  1
  H  H762  1  0.05187426  0.88131424  0.90447911  1
  C  C763  1  0.44500152  0.93717176  0.89516727  1
  H  H764  1  0.00107871  0.82341478  0.69983221  1
  C  C765  1  0.48572029  0.79545947  0.95848853  1
  H  H766  1  0.47909178  0.76167202  0.96908640  1
  H  H767  1  0.01390776  0.91477699  0.52981429  1
  C  C768  1  0.05793837  0.76460184  0.84057867  1
  C  C769  1  0.11335505  0.75464907  0.87626371  1
  Cu  Cu770  1  0.36418134  0.90816289  0.50197892  1
  C  C771  1  0.04100397  0.93529020  0.50337241  1
  C  C772  1  0.58792782  0.09993495  0.05325428  1
  H  H773  1  0.65686329  0.23451133  0.17045414  1
  C  C774  1  0.82383504  0.23547983  0.12266759  1
  C  C775  1  0.80800273  0.09104300  0.26299764  1
  C  C776  1  0.58732976  0.07437520  0.10275151  1
  N  N777  1  0.55621883  0.08646006  0.20935755  1
  H  H778  1  0.56634607  0.17056252  0.04268765  1
  C  C779  1  0.86610742  0.11736191  0.08199575  1
  C  C780  1  0.91981850  0.07285745  0.26545884  1
  H  H781  1  0.93968775  0.01000913  0.36219031  1
  H  H782  1  0.51164050  0.18286679  0.34606171  1
  C  C783  1  0.75566479  0.10188811  0.24203402  1
  C  C784  1  0.69407236  0.11473157  0.22116833  1
  C  C785  1  0.66364878  0.15136769  0.24413681  1
  H  H786  1  0.58668715  0.08967531  0.00854923  1
  H  H787  1  0.74400836  0.04914269  0.08143938  1
  H  H788  1  0.67751889  0.18296232  0.44201286  1
  H  H789  1  0.66628637  0.09483932  0.19295361  1
  C  C790  1  0.87409468  0.16060719  0.09422034  1
  Cu  Cu791  1  0.88905592  0.14250858  0.22190403  1
  Cu  Cu792  1  0.82491490  0.16529733  0.33077616  1
  N  N793  1  0.79361472  0.23971147  0.17633116  1
  N  N794  1  0.86681633  0.19297856  0.26088076  1
  H  H795  1  0.93740842  0.02034108  0.49635175  1
  C  C796  1  0.69678397  0.11967085  0.40432818  1
  H  H797  1  0.69634606  0.11904931  0.09165690  1
  C  C798  1  0.52161719  0.23483189  0.14520922  1
  Cu  Cu799  1  0.78325163  0.18853332  0.21823458  1
  Cu  Cu800  1  0.95127593  0.20150619  0.30194410  1
  H  H801  1  0.61125731  0.15480361  0.23394143  1
  C  C802  1  0.69686582  0.18036197  0.28253735  1
  H  H803  1  0.71695948  0.19263873  0.11497038  1
  C  C804  1  0.52641176  0.20630707  0.38068761  1
  C  C805  1  0.86323594  0.08133173  0.29777046  1
  C  C806  1  0.57137613  0.14336271  0.07011770  1
  N  N807  1  0.97204345  0.15824373  0.18660864  1
  H  H808  1  0.89108148  0.02818073  0.18942276  1
  H  H809  1  0.66132271  0.12272686  0.36730263  1
  C  C810  1  0.55801644  0.14234448  0.13086045  1
  C  C811  1  0.73323642  0.20025569  0.31518889  1
  C  C812  1  0.82135590  0.18824425  0.10511436  1
  H  H813  1  0.59621339  0.03873248  0.10182911  1
  Cu  Cu814  1  0.87419749  0.17002191  0.47642498  1
  C  C815  1  0.75404607  0.14602826  0.49133568  1
  C  C816  1  0.79989186  0.10338481  0.07666196  1
  N  N817  1  0.77150472  0.21998480  0.34870065  1
  Cl  Cl818  1  0.91353618  0.18169765  0.38698795  1
  N  N819  1  0.72567983  0.04796661  0.37051031  1
  H  H820  1  0.63259070  0.20800608  0.36264301  1
  H  H821  1  0.90650527  0.09679252  0.07702522  1
  H  H822  1  0.77146012  0.03439082  0.21702282  1
  C  C823  1  0.75780703  0.17182462  0.10410868  1
  H  H824  1  0.96934792  0.21604472  0.05617095  1
  C  C825  1  0.55377196  0.08697821  0.44422263  1
  Cu  Cu826  1  0.77358324  0.21152160  0.43272959  1
  C  C827  1  0.76763367  0.07365148  0.46370323  1
  C  C828  1  0.72798649  0.07945852  0.41249113  1
  H  H829  1  0.85949090  0.07694338  0.34684990  1
  H  H830  1  0.92386939  0.17541023  0.09199763  1
  C  C831  1  0.74647048  0.12931472  0.09349051  1
  C  C832  1  0.59134866  0.21906245  0.38973412  1
  H  H833  1  0.72975546  0.01606159  0.37944962  1
  H  H834  1  0.97090056  0.18336009  0.15958833  1
  H  H835  1  0.69293326  0.04664531  0.33420140  1
  N  N836  1  0.78649556  0.06048712  0.06721334  1
  Cl  Cl837  1  0.96789498  0.09185158  0.41713499  1
  H  H838  1  0.81741922  0.03624281  0.07469421  1
  H  H839  1  0.56502158  0.11061582  0.23871618  1
  N  N840  1  0.94525289  0.22169257  0.01866044  1
  N  N841  1  0.52625209  0.22609169  0.20395171  1
  H  H842  1  0.88479229  0.21226794  0.22836544  1
  H  H843  1  0.58300811  0.06202988  0.22528095  1
  C  C844  1  0.70912844  0.15223654  0.44289650  1
  C  C845  1  0.56714027  0.10008599  0.15302409  1
  C  C846  1  0.96028898  0.06939226  0.22578104  1
  H  H847  1  0.82719978  0.13962157  0.00483373  1
  H  H848  1  0.98472525  0.01220625  0.25595666  1
  H  H849  1  0.54651601  0.16935471  0.15803423  1
  H  H850  1  0.78624340  0.04282197  0.47383103  1
  H  H851  1  0.59725364  0.06947168  0.42809214  1
  C  C852  1  0.60580899  0.24614886  0.43948727  1
  C  C853  1  0.79086555  0.01077716  0.18273138  1
  Cu  Cu854  1  0.99270512  0.19245840  0.44482842  1
  N  N855  1  0.99973662  0.05845944  0.12093373  1
  H  H856  1  0.99093950  0.13279462  0.16349387  1
  Cu  Cu857  1  0.84383065  0.24667868  0.30149098  1
  C  C858  1  0.57493487  0.24886271  0.10566166  1
  H  H859  1  0.94280123  0.24994463  0.21050760  1
  C  C860  1  0.85618269  0.00896169  0.16438386  1
  C  C861  1  0.93085400  0.08447039  0.49717279  1
  H  H862  1  0.69264583  0.15971157  0.01889899  1
  H  H863  1  0.92749295  0.19114941  0.00938230  1
  C  C864  1  0.56231786  0.11566999  0.49226666  1
  H  H865  1  0.65523503  0.23662097  0.01010051  1
  C  C866  1  0.83177280  0.17928012  0.86240946  1
  C  C867  1  0.71841885  0.21060781  0.60856193  1
  C  C868  1  0.65002568  0.13854939  0.94065842  1
  C  C869  1  0.66272259  0.20760269  0.65455327  1
  H  H870  1  0.84895045  0.14528694  0.77963395  1
  N  N871  1  0.82723171  0.19986772  0.53337288  1
  H  H872  1  0.57458636  0.01247283  0.90810385  1
  N  N873  1  0.67191193  0.02475767  0.86266431  1
  C  C874  1  0.64645166  0.21321217  0.97512648  1
  C  C875  1  0.83616133  0.14273937  0.82577105  1
  N  N876  1  0.84162539  0.06615414  0.94834343  1
  H  H877  1  0.88533172  0.07825890  0.58832295  1
  N  N878  1  0.67219643  0.09828017  0.95016162  1
  C  C879  1  0.67750627  0.18502371  0.70521268  1
  C  C880  1  0.84702596  0.10682126  0.86184581  1
  C  C881  1  0.63448833  0.09418589  0.73095850  1
  C  C882  1  0.60377865  0.23147180  0.64187337  1
  H  H883  1  0.81179871  0.10507355  0.54294338  1
  H  H884  1  0.66319589  0.10834602  0.50370473  1
  N  N885  1  0.97799552  0.22918371  0.83145295  1
  H  H886  1  0.59221863  0.06465145  0.56438437  1
  C  C887  1  0.77350725  0.02648487  0.83495905  1
  H  H888  1  0.71854625  0.10524538  0.61489974  1
  N  N889  1  0.74462346  0.09018083  0.64612552  1
  C  C890  1  0.57174399  0.20426294  0.73881958  1
  N  N891  1  0.51912244  0.19384899  0.77664533  1
  C  C892  1  0.82686358  0.18102009  0.92754193  1
  H  H893  1  0.81702537  0.04240268  0.92763149  1
  C  C894  1  0.51010838  0.14216498  0.51462201  1
  Cu  Cu895  1  0.84114928  0.24441262  0.58697596  1
  H  H896  1  0.63780378  0.14397467  0.54647237  1
  H  H897  1  0.56570185  0.20430499  0.84015475  1
  C  C898  1  0.62113243  0.15167021  0.88630702  1
  C  C899  1  0.77031267  0.18080134  0.53833857  1
  H  H900  1  0.72791322  0.05995950  0.64282274  1
  C  C901  1  0.61454523  0.22470714  0.92133029  1
  H  H902  1  0.50962571  0.16413720  0.79449815  1
  C  C903  1  0.90612054  0.07938903  0.54359047  1
  C  C904  1  0.99120998  0.23852936  0.59721208  1
  C  C905  1  0.84020856  0.06791654  0.70275866  1
  H  H906  1  0.67077961  0.07436524  0.91918315  1
  C  C907  1  0.89028347  0.15286577  0.68677570  1
  H  H908  1  0.81955122  0.03644218  0.70933632  1
  N  N909  1  0.76298659  0.23943707  0.62352188  1
  N  N910  1  0.62096773  0.11719879  0.52449592  1
  C  C911  1  0.55965625  0.22925285  0.68768255  1
  C  C912  1  0.80548868  0.10009521  0.66944632  1
  H  H913  1  0.81917980  0.21048291  0.95369240  1
  H  H914  1  0.80721017  0.16307187  0.63097760  1
  C  C915  1  0.55821576  0.04219382  0.77669142  1
  C  C916  1  0.82468770  0.21971454  0.83056442  1
  C  C917  1  0.52442576  0.08827718  0.69158626  1
  H  H918  1  0.51763489  0.13640663  0.94176251  1
  H  H919  1  0.61410559  0.12641250  0.85443428  1
  C  C920  1  0.66353991  0.17144261  0.98306122  1
  C  C921  1  0.98929419  0.12927792  0.74546558  1
  C  C922  1  0.98673863  0.15110247  0.91772655  1
  C  C923  1  0.58702113  0.10943475  0.69229945  1
  C  C924  1  0.84039427  0.10549873  0.92296865  1
  H  H925  1  0.85710319  0.07535109  0.84029176  1
  H  H926  1  0.52272095  0.16815789  0.54666185  1
  C  C927  1  0.82824765  0.14431199  0.95717846  1
  H  H928  1  0.72632427  0.17183349  0.71199332  1
  C  C929  1  0.52603725  0.01326292  0.59154422  1
  C  C930  1  0.59630220  0.19283244  0.87973679  1
  N  N931  1  0.71645985  0.18053243  0.57135037  1
  H  H932  1  0.98920022  0.20623695  0.80104509  1
  H  H933  1  0.92718460  0.05543158  0.75119053  1
  C  C934  1  0.83267422  0.14162057  0.65879910  1
  C  C935  1  0.67834218  0.04566156  0.80905854  1
  C  C936  1  0.90004741  0.07783548  0.72674349  1
  H  H937  1  0.94692993  0.05400261  0.91218234  1
  N  N938  1  0.79574876  0.22626164  0.77724018  1
  C  C939  1  0.63246699  0.18475893  0.75179968  1
  C  C940  1  0.51264561  0.05751172  0.73653563  1
  C  C941  1  0.62259366  0.06080410  0.77121327  1
  H  H942  1  0.68441950  0.10701999  0.73062592  1
  H  H943  1  0.70595748  0.08931707  0.98300629  1
  H  H944  1  0.63778436  0.16939186  0.79562605  1
  N  N945  1  0.74082041  0.04755445  0.79271282  1
  H  H946  1  0.96147817  0.02471757  0.61480772  1
  H  H947  1  0.59987944  0.13717689  0.66434486  1
  H  H948  1  0.91088948  0.18408145  0.67876419  1
  C  C949  1  0.92574376  0.11988276  0.72043839  1
  H  H950  1  0.97851088  0.22725702  0.98318862  1
  C  C951  1  0.97589244  0.23543309  0.65937148  1
  H  H952  1  0.92704789  0.23201316  0.83804372  1
  H  H953  1  0.94688921  0.15236460  0.88512822  1
  N  N954  1  0.73170261  0.01280097  0.87856511  1
  H  H955  1  0.61521523  0.03081016  0.61765602  1
  H  H956  1  0.59442641  0.24881052  0.59883795  1
  C  C957  1  0.96295648  0.00411201  0.65306263  1
  N  N958  1  0.58420786  0.03581403  0.58427533  1
  C  C959  1  0.89989302  0.00369389  0.82022285  1
  H  H960  1  0.51256857  0.21209513  0.97637796  1
  N  N961  1  0.99469871  0.06150538  0.90818746  1
  C  C962  1  0.84415201  0.01461553  0.82685513  1
  H  H963  1  0.54735962  0.01648175  0.80823682  1
  C  C964  1  0.77874407  0.10624747  0.50378295  1
  H  H965  1  0.82892149  0.06483620  0.99206449  1
  C  C966  1  0.55409165  0.26432301  0.47566532  1
  C  C967  1  0.64035905  0.25356516  0.13051400  1
  H  H968  1  0.57058602  0.47426601  0.44271823  1
  C  C969  1  0.55074259  0.40314765  0.07561193  1
  C  C970  1  0.62630913  0.43338683  0.02160178  1
  C  C971  1  0.65395797  0.31093090  0.06127885  1
  C  C972  1  0.67654912  0.28625870  0.10817574  1
  H  H973  1  0.96203762  0.27616644  0.08240977  1
  H  H974  1  0.72634529  0.28721228  0.12065678  1
  C  C975  1  0.73199202  0.44376028  0.41285215  1
  H  H976  1  0.59208773  0.34154902  0.38734470  1
  N  N977  1  0.64131315  0.34398444  0.38473277  1
  N  N978  1  0.84213704  0.40415728  0.11661092  1
  N  N979  1  0.80204479  0.31515155  0.16763103  1
  H  H980  1  0.58656492  0.40713321  0.35526833  1
  Cu  Cu981  1  0.76672136  0.37673870  0.08014338  1
  N  N982  1  0.83611316  0.40099515  0.17120817  1
  C  C983  1  0.78596090  0.27978391  0.19312235  1
  H  H984  1  0.53523394  0.31906145  0.10152427  1
  N  N985  1  0.72973011  0.26509957  0.45631097  1
  Cu  Cu986  1  0.76741322  0.36504129  0.19415702  1
  C  C987  1  0.68621123  0.40328717  0.48984855  1
  C  C988  1  0.79361518  0.47573063  0.05990998  1
  H  H989  1  0.60012943  0.28950910  0.31336920  1
  C  C990  1  0.61642767  0.45664873  0.44805742  1
  Cu  Cu991  1  0.73151240  0.27325641  0.36653152  1
  H  H992  1  0.81914579  0.48410981  0.10071160  1
  N  N993  1  0.84980592  0.26198038  0.08568438  1
  N  N994  1  0.61108873  0.42374269  0.07914823  1
  C  C995  1  0.73453010  0.45567355  0.06336168  1
  H  H996  1  0.94226996  0.37753969  0.43480329  1
  C  C997  1  0.64920093  0.29708175  0.30494871  1
  H  H998  1  0.98570974  0.39378736  0.19379260  1
  H  H999  1  0.66106665  0.37097799  0.04170637  1
  Cl  Cl1000  1  0.89848097  0.27503878  0.42985975  1
  Cu  Cu1001  1  0.91600992  0.44184211  0.10447619  1
  Cu  Cu1002  1  0.75997884  0.32266853  0.44940280  1
  C  C1003  1  0.74473650  0.41244862  0.45473333  1
  H  H1004  1  0.63758620  0.49889398  0.07179746  1
  H  H1005  1  0.60579174  0.38750164  0.22165421  1
  C  C1006  1  0.52847957  0.46597008  0.28301135  1
  H  H1007  1  0.65828316  0.25477818  0.23275375  1
  C  C1008  1  0.55870552  0.26821184  0.05017405  1
  Cu  Cu1009  1  0.90196894  0.43345002  0.21639724  1
  H  H1010  1  0.77351215  0.45540036  0.38702539  1
  C  C1011  1  0.86388930  0.36879948  0.38189054  1
  H  H1012  1  0.74625899  0.41466711  0.31655288  1
  H  H1013  1  0.76964790  0.36942587  0.35115148  1
  C  C1014  1  0.50524074  0.40852090  0.18313907  1
  C  C1015  1  0.68456935  0.43006974  0.24263947  1
  C  C1016  1  0.74668285  0.34113018  0.33016174  1
  H  H1017  1  0.83183854  0.33665320  0.27376554  1
  C  C1018  1  0.62324702  0.42364450  0.48838003  1
  C  C1019  1  0.78612655  0.46601607  0.26516314  1
  C  C1020  1  0.97637958  0.32894008  0.04813875  1
  C  C1021  1  0.67147076  0.46513873  0.41022879  1
  C  C1022  1  0.66620397  0.45589837  0.19349015  1
  C  C1023  1  0.78265555  0.32390381  0.28392578  1
  H  H1024  1  0.64919337  0.37435625  0.40416947  1
  C  C1025  1  0.87377511  0.33431249  0.40043234  1
  C  C1026  1  0.51594288  0.34034541  0.13951703  1
  N  N1027  1  0.52469098  0.40128530  0.02366474  1
  C  C1028  1  0.96798772  0.32590038  0.21318967  1
  H  H1029  1  0.63810436  0.37612849  0.28506395  1
  C  C1030  1  0.74168620  0.43557537  0.28001243  1
  C  C1031  1  0.74987592  0.29276760  0.24935954  1
  H  H1032  1  0.85514877  0.40291090  0.36394884  1
  H  H1033  1  0.56163141  0.44749906  0.25524368  1
  C  C1034  1  0.68542211  0.27792513  0.26035810  1
  C  C1035  1  0.59568292  0.30164831  0.02938644  1
  C  C1036  1  0.52253690  0.38366813  0.13399028  1
  C  C1037  1  0.67523255  0.25698612  0.44926400  1
  C  C1038  1  0.68023117  0.32869011  0.34013640  1
  N  N1039  1  0.64657015  0.39385423  0.24675779  1
  N  N1040  1  0.69421379  0.34586410  0.04316175  1
  H  H1041  1  0.62240745  0.44785409  0.16956270  1
  N  N1042  1  0.53781917  0.41260117  0.36118007  1
  H  H1043  1  0.71133603  0.44516750  0.10370529  1
  N  N1044  1  0.98038437  0.48094037  0.08864098  1
  Cu  Cu1045  1  0.85795966  0.32058530  0.10092523  1
  H  H1046  1  0.82668519  0.47387134  0.29485653  1
  N  N1047  1  0.96967111  0.45934941  0.26132869  1
  H  H1048  1  0.51248496  0.44394009  0.17528298  1
  H  H1049  1  0.61839043  0.49250034  0.34107353  1
  C  C1050  1  0.51608675  0.45224623  0.34130782  1
  H  H1051  1  0.51681805  0.25955117  0.02237155  1
  C  C1052  1  0.95724096  0.35627686  0.00768960  1
  N  N1053  1  0.66048914  0.49472551  0.36476031  1
  C  C1054  1  0.69556718  0.45291892  0.01261200  1
  C  C1055  1  0.70681947  0.49055031  0.18182966  1
  N  N1056  1  0.96232079  0.40472112  0.44890817  1
  C  C1057  1  0.97875689  0.36879072  0.22768454  1
  H  H1058  1  0.79384216  0.40018314  0.46216617  1
  H  H1059  1  0.96106430  0.31607739  0.16590565  1
  C  C1060  1  0.76742253  0.49142736  0.21264174  1
  H  H1061  1  0.97619763  0.42735129  0.41984649  1
  C  C1062  1  0.99508171  0.38310959  0.28557114  1
  C  C1063  1  0.98205910  0.31062702  0.31938524  1
  N  N1064  1  0.96781017  0.25246985  0.24867198  1
  C  C1065  1  0.96702281  0.29723704  0.26034339  1
  H  H1066  1  0.98195841  0.28727581  0.35775225  1
  N  N1067  1  0.99403713  0.30119624  0.08882475  1
  C  C1068  1  0.99956756  0.35300495  0.33178003  1
  C  C1069  1  0.99716511  0.42964694  0.29987263  1
  H  H1070  1  0.53251905  0.40892378  0.40565308  1
  Cu  Cu1071  1  0.87157209  0.25921159  0.00563530  1
  C  C1072  1  0.82293099  0.48695522  0.00447893  1
  H  H1073  1  0.96302071  0.29238995  0.90860035  1
  H  H1074  1  0.68781047  0.46779887  0.92015637  1
  H  H1075  1  0.88922899  0.31752596  0.55210955  1
  C  C1076  1  0.91644771  0.29576458  0.58258666  1
  H  H1077  1  0.66224861  0.31818413  0.74072355  1
  H  H1078  1  0.88203017  0.35489795  0.67391418  1
  C  C1079  1  0.61468868  0.31903306  0.71965749  1
  H  H1080  1  0.94631309  0.41470249  0.65355375  1
  C  C1081  1  0.69574610  0.36931448  0.53412362  1
  H  H1082  1  0.71689619  0.47180744  0.68620693  1
  H  H1083  1  0.98831515  0.38594490  0.86066198  1
  C  C1084  1  0.55490666  0.31072408  0.74895707  1
  N  N1085  1  0.86285438  0.39574794  0.57098068  1
  N  N1086  1  0.65828046  0.36922644  0.57957465  1
  C  C1087  1  0.67078055  0.34375426  0.62687234  1
  H  H1088  1  0.58336790  0.31697746  0.98785459  1
  N  N1089  1  0.72218932  0.32392082  0.64021449  1
  Cu  Cu1090  1  0.80227389  0.33234686  0.59812118  1
  H  H1091  1  0.74544813  0.42241057  0.60029435  1
  C  C1092  1  0.85160441  0.33045870  0.82129021  1
  C  C1093  1  0.90275972  0.29399256  0.64223554  1
  N  N1094  1  0.55781359  0.33681138  0.88504311  1
  H  H1095  1  0.92167529  0.46369213  0.74071759  1
  N  N1096  1  0.53852008  0.28601586  0.90049203  1
  C  C1097  1  0.82657093  0.40406849  0.82249121  1
  H  H1098  1  0.85095107  0.32121321  0.71449463  1
  C  C1099  1  0.82042644  0.47247755  0.71538876  1
  C  C1100  1  0.99656120  0.36610787  0.53112936  1
  H  H1101  1  0.82680116  0.39600794  0.54021121  1
  C  C1102  1  0.82872256  0.28624395  0.81311010  1
  H  H1103  1  0.55612864  0.29799193  0.79422706  1
  N  N1104  1  0.74766300  0.33856191  0.52849968  1
  C  C1105  1  0.88405192  0.45565932  0.70851823  1
  C  C1106  1  0.68216611  0.40596503  0.86871504  1
  C  C1107  1  0.62229664  0.33285832  0.88942106  1
  Cu  Cu1108  1  0.74524179  0.27899128  0.68403060  1
  N  N1109  1  0.91133286  0.45485167  0.85165477  1
  N  N1110  1  0.88490288  0.49778298  0.98928991  1
  H  H1111  1  0.88639832  0.47917494  0.83338467  1
  C  C1112  1  0.93727964  0.38008431  0.84938036  1
  Cu  Cu1113  1  0.72556876  0.35652767  0.96662046  1
  C  C1114  1  0.78178133  0.43179665  0.63250598  1
  N  N1115  1  0.84263715  0.25764910  0.85690032  1
  C  C1116  1  0.60962689  0.33472726  0.66140960  1
  H  H1117  1  0.57677006  0.47611402  0.59234224  1
  Cu  Cu1118  1  0.74285618  0.28358720  0.91783410  1
  C  C1119  1  0.55074913  0.33776471  0.62813162  1
  N  N1120  1  0.58092783  0.42454546  0.98090491  1
  H  H1121  1  0.79183025  0.42909613  0.81257247  1
  Cu  Cu1122  1  0.72558751  0.27976988  0.54201638  1
  C  C1123  1  0.65754917  0.37199446  0.87863353  1
  H  H1124  1  0.90861772  0.35319629  0.98592650  1
  H  H1125  1  0.91604176  0.25972188  0.72592025  1
  H  H1126  1  0.98215969  0.33801629  0.50704343  1
  N  N1127  1  0.86206944  0.32485412  0.66934769  1
  Cl  Cl1128  1  0.80280309  0.30988799  0.98571174  1
  Cu  Cu1129  1  0.56367892  0.42255577  0.90172066  1
  C  C1130  1  0.89263953  0.41402851  0.84051452  1
  H  H1131  1  0.95971579  0.31526601  0.82651022  1
  N  N1132  1  0.80090773  0.26767629  0.76486302  1
  H  H1133  1  0.55128260  0.35246679  0.58467023  1
  C  C1134  1  0.99494774  0.40735661  0.50267543  1
  H  H1135  1  0.96079226  0.46473705  0.85815878  1
  C  C1136  1  0.72084316  0.46682317  0.95868107  1
  H  H1137  1  0.70209108  0.43782062  0.85550257  1
  C  C1138  1  0.80319869  0.36296163  0.81513203  1
  N  N1139  1  0.65478422  0.29468352  0.90163121  1
  H  H1140  1  0.80446947  0.48769052  0.90815366  1
  H  H1141  1  0.90269955  0.40240512  0.54713955  1
  C  C1142  1  0.84735334  0.41793677  0.62222700  1
  C  C1143  1  0.59642331  0.26978923  0.90447423  1
  N  N1144  1  0.56406374  0.45094693  0.62111329  1
  C  C1145  1  0.54394092  0.45093008  0.68015632  1
  H  H1146  1  0.58874878  0.39007137  0.70824617  1
  C  C1147  1  0.56167652  0.41893430  0.72245732  1
  C  C1148  1  0.92852841  0.26198091  0.68107209  1
  C  C1149  1  0.54155130  0.42364539  0.77968175  1
  H  H1150  1  0.74899231  0.35428915  0.80695241  1
  C  C1151  1  0.96004256  0.26685386  0.55864344  1
  C  C1152  1  0.76780679  0.46030144  0.67695808  1
  C  C1153  1  0.89921153  0.42920093  0.65985323  1
  C  C1154  1  0.51087509  0.48895674  0.69695320  1
  C  C1155  1  0.92005956  0.33927161  0.83193953  1
  H  H1156  1  0.60224995  0.43224440  0.61674236  1
  H  H1157  1  0.51855666  0.25164098  0.68572290  1
  C  C1158  1  0.78559165  0.47980736  0.95278064  1
  H  H1159  1  0.54825224  0.39379989  0.80711837  1
  H  H1160  1  0.98418991  0.41689745  0.95852731  1
  H  H1161  1  0.96938378  0.26291857  0.51188413  1
  H  H1162  1  0.58427739  0.41615090  0.51856512  1
  C  C1163  1  0.99751531  0.39803181  0.99690555  1
  H  H1164  1  0.56479190  0.28739326  0.50931795  1
  C  C1165  1  0.59945952  0.61307510  0.01591697  1
  C  C1166  1  0.90688080  0.59559452  0.10295239  1
  C  C1167  1  0.95686325  0.62418551  0.12464241  1
  N  N1168  1  0.74821866  0.71830915  0.22484182  1
  H  H1169  1  0.71953536  0.63148029  0.10740958  1
  N  N1170  1  0.81994348  0.54675258  0.14611203  1
  C  C1171  1  0.97633925  0.63738719  0.02175612  1
  H  H1172  1  0.76224752  0.67346013  0.49782855  1
  H  H1173  1  0.58955402  0.57641487  0.36322934  1
  H  H1174  1  0.96547114  0.62935152  0.17255923  1
  C  C1175  1  0.61304551  0.61095825  0.24525872  1
  C  C1176  1  0.67898313  0.55411122  0.03318375  1
  H  H1177  1  0.60097126  0.73485184  0.00779824  1
  C  C1178  1  0.73674009  0.73621950  0.08876767  1
  C  C1179  1  0.58422702  0.73006187  0.16530618  1
  C  C1180  1  0.75300208  0.69228942  0.08930367  1
  H  H1181  1  0.99419500  0.71493809  0.43132144  1
  C  C1182  1  0.56136066  0.64959243  0.16773778  1
  C  C1183  1  0.91044808  0.69278838  0.18770794  1
  H  H1184  1  0.53553661  0.65326972  0.12573736  1
  N  N1185  1  0.71321447  0.66327523  0.11992258  1
  C  C1186  1  0.98506593  0.64943102  0.08219900  1
  C  C1187  1  0.66604844  0.69992690  0.45241671  1
  N  N1188  1  0.91724521  0.55386841  0.19475286  1
  H  H1189  1  0.90422026  0.68026056  0.35880455  1
  H  H1190  1  0.55354901  0.58143679  0.17147365  1
  H  H1191  1  0.68899980  0.74854344  0.10265312  1
  H  H1192  1  0.82541457  0.64323966  0.07226687  1
  C  C1193  1  0.84469726  0.74997726  0.04638111  1
  H  H1194  1  0.63487798  0.71496879  0.27056743  1
  H  H1195  1  0.61782732  0.54514606  0.24745221  1
  H  H1196  1  0.50233877  0.60676469  0.05221943  1
  C  C1197  1  0.82022009  0.52062557  0.19339870  1
  N  N1198  1  0.92349286  0.60990117  0.40063700  1
  Cu  Cu1199  1  0.95462071  0.51625912  0.29017186  1
  H  H1200  1  0.90049747  0.69112396  0.02284007  1
  C  C1201  1  0.56479276  0.55095611  0.06957415  1
  H  H1202  1  0.69478101  0.50791003  0.14213048  1
  C  C1203  1  0.78349881  0.68653218  0.25197633  1
  H  H1204  1  0.88762653  0.66187187  0.18009721  1
  N  N1205  1  0.53666233  0.50798852  0.16072952  1
  C  C1206  1  0.87912671  0.56676773  0.14906404  1
  C  C1207  1  0.51729018  0.53258414  0.11361184  1
  C  C1208  1  0.92872608  0.57623601  0.43704589  1
  C  C1209  1  0.81522002  0.67665861  0.06747067  1
  C  C1210  1  0.86596223  0.66998183  0.32547977  1
  Cu  Cu1211  1  0.97361663  0.53776443  0.10742853  1
  C  C1212  1  0.57603992  0.61051985  0.19134928  1
  C  C1213  1  0.82351099  0.69924428  0.29910963  1
  C  C1214  1  0.85967627  0.62605366  0.31110792  1
  C  C1215  1  0.55004299  0.59127076  0.04358711  1
  H  H1216  1  0.74962519  0.63344438  0.20053629  1
  H  H1217  1  0.66509520  0.66444252  0.11725767  1
  C  C1218  1  0.58634754  0.68706373  0.19302604  1
  C  C1219  1  0.63448492  0.64737106  0.27610756  1
  C  C1220  1  0.62804374  0.53226056  0.06071328  1
  C  C1221  1  0.85762440  0.70515038  0.04156054  1
  C  C1222  1  0.71179409  0.61725670  0.43241844  1
  C  C1223  1  0.55790189  0.57132728  0.40167234  1
  C  C1224  1  0.96841403  0.70112427  0.21971328  1
  H  H1225  1  0.77132172  0.64709685  0.35949302  1
  N  N1226  1  0.87983390  0.52599260  0.22354449  1
  N  N1227  1  0.73566935  0.57603937  0.42640814  1
  H  H1228  1  0.80840433  0.57720649  0.25960196  1
  C  C1229  1  0.97169015  0.58137399  0.48804969  1
  C  C1230  1  0.81524615  0.61118356  0.26645167  1
  H  H1231  1  0.72621504  0.54974502  0.45300295  1
  H  H1232  1  0.84733543  0.56651136  0.02936221  1
  C  C1233  1  0.88789552  0.59618745  0.35439912  1
  C  C1234  1  0.78352359  0.64238611  0.23526784  1
  H  H1235  1  0.78132635  0.57027388  0.41024602  1
  H  H1236  1  0.73353613  0.71902389  0.38149634  1
  C  C1237  1  0.73697111  0.65153863  0.39727297  1
  N  N1238  1  0.89567681  0.54115624  0.41268319  1
  Cu  Cu1239  1  0.52427638  0.71940002  0.41322299  1
  H  H1240  1  0.63799682  0.54004239  0.44778926  1
  H  H1241  1  0.84032202  0.73113010  0.13683682  1
  C  C1242  1  0.71574974  0.69197642  0.41043857  1
  C  C1243  1  0.88890079  0.58749111  0.04319594  1
  H  H1244  1  0.82272681  0.73244249  0.31123700  1
  H  H1245  1  0.72192312  0.71328959  0.18630669  1
  C  C1246  1  0.61787289  0.68497019  0.24897858  1
  C  C1247  1  0.88284369  0.73032480  0.16285666  1
  N  N1248  1  0.87172704  0.55367829  0.36125879  1
  H  H1249  1  0.66349584  0.64533706  0.31744837  1
  H  H1250  1  0.67498618  0.56612205  0.28317152  1
  H  H1251  1  0.76487519  0.60697423  0.00285087  1
  N  N1252  1  0.55231628  0.73586757  0.11654301  1
  N  N1253  1  0.62897936  0.57140465  0.26756811  1
  C  C1254  1  0.58538505  0.55080861  0.45031313  1
  H  H1255  1  0.92208407  0.50349371  0.01774013  1
  H  H1256  1  0.72794537  0.53996635  0.02878471  1
  H  H1257  1  0.51496625  0.66244601  0.49427590  1
  H  H1258  1  0.97010672  0.74960692  0.33357206  1
  N  N1259  1  0.94616756  0.71810035  0.43803072  1
  H  H1260  1  0.93291022  0.70442935  0.47748356  1
  C  C1261  1  0.92943536  0.60741839  0.00052745  1
  C  C1262  1  0.63947029  0.74458477  0.46454014  1
  H  H1263  1  0.51138016  0.62711919  0.33115779  1
  H  H1264  1  0.69186528  0.50011353  0.33281142  1
  C  C1265  1  0.66494681  0.59506377  0.01205951  1
  C  C1266  1  0.97792145  0.74581537  0.21809327  1
  C  C1267  1  0.90456480  0.74323103  0.40579332  1
  H  H1268  1  0.82372834  0.74703586  0.47097739  1
  C  C1269  1  0.66927470  0.62555561  0.47796147  1
  C  C1270  1  0.64357837  0.66608544  0.48727466  1
  C  C1271  1  0.56358006  0.61113548  0.79351302  1
  C  C1272  1  0.84651169  0.65288975  0.90884291  1
  C  C1273  1  0.85866219  0.58214695  0.85919607  1
  C  C1274  1  0.82330397  0.61343490  0.89500871  1
  H  H1275  1  0.77361961  0.60735819  0.90327536  1
  H  H1276  1  0.99455398  0.74143640  0.77245372  1
  H  H1277  1  0.97187357  0.71588769  0.87420378  1
  C  C1278  1  0.57113955  0.60223241  0.73543366  1
  H  H1279  1  0.58508807  0.61469294  0.61979403  1
  N  N1280  1  0.79344463  0.56090735  0.55636873  1
  C  C1281  1  0.64089434  0.73025888  0.61300747  1
  N  N1282  1  0.76000031  0.53083007  0.83968785  1
  C  C1283  1  0.84375811  0.57409916  0.59366805  1
  C  C1284  1  0.59989309  0.54990221  0.65372102  1
  H  H1285  1  0.84040936  0.51818343  0.64954579  1
  C  C1286  1  0.93684872  0.60485581  0.66913790  1
  H  H1287  1  0.76985322  0.57845980  0.52505626  1
  N  N1288  1  0.71917310  0.62705318  0.62053594  1
  H  H1289  1  0.71397887  0.59496919  0.62802427  1
  H  H1290  1  0.50539808  0.74980190  0.80385133  1
  C  C1291  1  0.66974182  0.65715972  0.62257591  1
  C  C1292  1  0.92316921  0.59277366  0.84033842  1
  C  C1293  1  0.55372758  0.67831062  0.61444505  1
  H  H1294  1  0.94953867  0.65838881  0.60748350  1
  C  C1295  1  0.68885706  0.69978291  0.61746642  1
  H  H1296  1  0.77199792  0.53260478  0.56760641  1
  C  C1297  1  0.86412452  0.54843878  0.64220776  1
  H  H1298  1  0.68823058  0.59043259  0.75495557  1
  H  H1299  1  0.64800820  0.60017171  0.50534705  1
  N  N1300  1  0.54412066  0.58333525  0.89294203  1
  C  C1301  1  0.73647367  0.72409204  0.91936642  1
  C  C1302  1  0.71465811  0.67300821  0.74959715  1
  N  N1303  1  0.71739286  0.61829806  0.98887598  1
  H  H1304  1  0.95143190  0.51974174  0.53220772  1
  C  C1305  1  0.97681962  0.55101461  0.53382173  1
  C  C1306  1  0.74266905  0.71387125  0.74772398  1
  H  H1307  1  0.90452596  0.69547374  0.77205521  1
  C  C1308  1  0.59641255  0.53790187  0.82235157  1
  H  H1309  1  0.81481332  0.67764277  0.93015729  1
  C  C1310  1  0.58309417  0.54453909  0.56103514  1
  C  C1311  1  0.92075311  0.62949486  0.61702225  1
  H  H1312  1  0.62618135  0.66305118  0.84638659  1
  C  C1313  1  0.56760794  0.57817720  0.83594678  1
  C  C1314  1  0.63224559  0.72433283  0.97276214  1
  H  H1315  1  0.94799760  0.57064999  0.80813602  1
  C  C1316  1  0.59201611  0.56121862  0.71806818  1
  Cl  Cl1317  1  0.91716389  0.73489454  0.59030564  1
  H  H1318  1  0.82477110  0.73999091  0.87360420  1
  H  H1319  1  0.86425377  0.61761907  0.76394604  1
  H  H1320  1  0.75920631  0.63320174  0.64625169  1
  N  N1321  1  0.94070571  0.70081881  0.90292143  1
  C  C1322  1  0.87338376  0.61339434  0.58007739  1
  N  N1323  1  0.55343501  0.55614597  0.61167248  1
  C  C1324  1  0.57452361  0.72046217  0.60612618  1
  C  C1325  1  0.85535306  0.68761621  0.75929700  1
  H  H1326  1  0.60839738  0.67245781  0.52094160  1
  C  C1327  1  0.53508327  0.68845007  0.92932663  1
  H  H1328  1  0.52810853  0.70884620  0.50788123  1
  C  C1329  1  0.81157859  0.72196378  0.75367216  1
  H  H1330  1  0.92052778  0.72584628  0.92403891  1
  N  N1331  1  0.64605408  0.52815190  0.57175559  1
  C  C1332  1  0.83074611  0.64586628  0.75536571  1
  H  H1333  1  0.55109331  0.56189545  0.92575382  1
  C  C1334  1  0.60138836  0.64683810  0.61964250  1
  C  C1335  1  0.71044311  0.69620398  0.87676163  1
  N  N1336  1  0.73458552  0.59725486  0.74253218  1
  H  H1337  1  0.66410439  0.66662073  0.74573147  1
  C  C1338  1  0.91357139  0.66270331  0.89072179  1
  C  C1339  1  0.60760154  0.69756390  0.92834584  1
  C  C1340  1  0.60325450  0.53102051  0.76279004  1
  C  C1341  1  0.82444532  0.54517854  0.83347636  1
  C  C1342  1  0.91063447  0.56353150  0.67982685  1
  N  N1343  1  0.85234272  0.52660785  0.78596988  1
  H  H1344  1  0.74016583  0.68404940  0.83918763  1
  H  H1345  1  0.76173814  0.57355947  0.76169603  1
  C  C1346  1  0.64813284  0.68138402  0.88231145  1
  C  C1347  1  0.94838981  0.63177987  0.85687492  1
  H  H1348  1  0.92507706  0.60291984  0.95340613  1
  C  C1349  1  0.76113244  0.63780534  0.74671949  1
  N  N1350  1  0.79379164  0.74571427  0.90639388  1
  N  N1351  1  0.65820935  0.53604317  0.62869993  1
  H  H1352  1  0.74164111  0.70687860  0.61806530  1
  C  C1353  1  0.84531320  0.70648954  0.54861930  1
  C  C1354  1  0.80228452  0.68936642  0.52414101  1
  C  C1355  1  0.54890592  0.55154213  0.50303686  1
  H  H1356  1  0.62326255  0.50081041  0.74996439  1
  H  H1357  1  0.54674257  0.64300609  0.80885835  1
  H  H1358  1  0.85654402  0.63312619  0.54292342  1
  C  C1359  1  0.98914972  0.61895627  0.71050957  1
  H  H1360  1  0.92976230  0.54254437  0.71566629  1
  H  H1361  1  0.54759393  0.61191389  0.91327059  1
  H  H1362  1  0.56299139  0.62764461  0.70164744  1
  H  H1363  1  0.60011503  0.51245131  0.85508383  1
  N  N1364  1  0.74748955  0.50389868  0.79647706  1
  H  H1365  1  0.99850074  0.63791519  0.84362451  1
  N  N1366  1  0.50218618  0.67003091  0.88353318  1
  H  H1367  1  0.50094693  0.66861875  0.61136130  1
  C  C1368  1  0.69434783  0.73889422  0.96586908  1
  C  C1369  1  0.80572031  0.50048860  0.76595533  1
  H  H1370  1  0.50441992  0.51274292  0.66135797  1
  H  H1371  1  0.70712999  0.73965572  0.74582798  1
  H  H1372  1  0.90011454  0.50566901  0.94704338  1
  H  H1373  1  0.58559002  0.64319899  0.99479576  1
  H  H1374  1  0.71354971  0.65091091  0.98943605  1
  C  C1375  1  0.73717263  0.85118801  0.22628653  1
  N  N1376  1  0.70177072  0.86494271  0.27459372  1
  C  C1377  1  0.54233547  0.80128969  0.05237537  1
  H  H1378  1  0.75457568  0.79238031  0.41696433  1
  Cu  Cu1379  1  0.54654608  0.80655406  0.46555180  1
  H  H1380  1  0.90607008  0.85862466  0.32582437  1
  C  C1381  1  0.80207944  0.78246072  0.39758405  1
  H  H1382  1  0.85594395  0.90273124  0.26009558  1
  C  C1383  1  0.95116863  0.85940424  0.29901194  1
  H  H1384  1  0.73193328  0.93883341  0.07798612  1
  C  C1385  1  0.56329042  0.85815410  0.35891147  1
  N  N1386  1  0.78603424  0.82518577  0.24219726  1
  C  C1387  1  0.77978312  0.82072736  0.30059682  1
  C  C1388  1  0.74721973  0.94244088  0.40343016  1
  C  C1389  1  0.50287180  0.95853556  0.06209751  1
  C  C1390  1  0.67756169  0.98042898  0.16432535  1
  H  H1391  1  0.95475953  0.82724164  0.17996850  1
  C  C1392  1  0.99744360  0.82910108  0.48939180  1
  H  H1393  1  0.90603717  0.83173427  0.44867104  1
  H  H1394  1  0.97941655  0.99490591  0.12583607  1
  C  C1395  1  0.52334927  0.87505533  0.25921231  1
  C  C1396  1  0.82299328  0.79635209  0.34077469  1
  H  H1397  1  0.96024071  0.96592614  0.06508231  1
  C  C1398  1  0.96693998  0.91510040  0.00060031  1
  H  H1399  1  0.90104471  0.79460735  0.27348181  1
  H  H1400  1  0.82487595  0.85272520  0.13733135  1
  N  N1401  1  0.72526892  0.84347675  0.32059681  1
  H  H1402  1  0.77189285  0.79662215  0.07216769  1
  N  N1403  1  0.51730194  0.86454065  0.20153807  1
  H  H1404  1  0.74576984  0.75012632  0.23086831  1
  C  C1405  1  0.76972390  0.95708592  0.10313548  1
  H  H1406  1  0.59242966  0.88501462  0.06990013  1
  H  H1407  1  0.88205640  0.92452198  0.20302138  1
  H  H1408  1  0.87260670  0.81724574  0.19194458  1
  C  C1409  1  0.95453932  0.88566457  0.24832780  1
  N  N1410  1  0.59567012  0.79670338  0.15257607  1
  C  C1411  1  0.92732708  0.76125801  0.18184374  1
  H  H1412  1  0.96015102  0.97320271  0.40598746  1
  C  C1413  1  0.83556441  0.95506334  0.08785764  1
  N  N1414  1  0.87493706  0.82529727  0.02139706  1
  C  C1415  1  0.56779857  0.85450535  0.29791311  1
  C  C1416  1  0.69500735  0.87461521  0.04330905  1
  H  H1417  1  0.85404328  0.93329846  0.05415921  1
  C  C1418  1  0.77507812  0.86140532  0.12255625  1
  C  C1419  1  0.64098182  0.87824093  0.08433910  1
  N  N1420  1  0.68656840  0.76775243  0.48735978  1
  C  C1421  1  0.76020947  0.86772552  0.06279597  1
  H  H1422  1  0.73201191  0.89524656  0.48424212  1
  H  H1423  1  0.54608359  0.84127041  0.18265560  1
  N  N1424  1  0.91435662  0.80810520  0.17070824  1
  H  H1425  1  0.59515516  0.84184033  0.38873447  1
  H  H1426  1  0.83157875  0.94953600  0.45950082  1
  N  N1427  1  0.58060517  0.75548647  0.45457423  1
  C  C1428  1  0.66136747  0.87673480  0.14239399  1
  C  C1429  1  0.88469876  0.78542156  0.31632890  1
  H  H1430  1  0.60661972  0.83297860  0.27736252  1
  H  H1431  1  0.59083138  0.97111689  0.44866314  1
  H  H1432  1  0.59236021  0.94081508  0.35564780  1
  N  N1433  1  0.93086310  0.83475472  0.48648359  1
  C  C1434  1  0.72604725  0.86515815  0.16515968  1
  N  N1435  1  0.94551587  0.97601462  0.10579905  1
  N  N1436  1  0.89500867  0.90369919  0.23390015  1
  N  N1437  1  0.64546635  0.98916977  0.21582797  1
  C  C1438  1  0.75026180  0.98122609  0.15307376  1
  C  C1439  1  0.88002059  0.98118590  0.11897568  1
  N  N1440  1  0.58186803  0.98198446  0.20942534  1
  H  H1441  1  0.61958989  0.88531131  0.17083104  1
  C  C1442  1  0.64091177  0.96408910  0.45514499  1
  C  C1443  1  0.56327951  0.77878123  0.10236566  1
  C  C1444  1  0.67662762  0.80893807  0.49498553  1
  H  H1445  1  0.90297709  0.81529758  0.12455160  1
  H  H1446  1  0.54827651  0.96051022  0.03600747  1
  H  H1447  1  0.79659467  0.85879064  0.02762748  1
  N  N1448  1  0.63290448  0.96961626  0.12239632  1
  C  C1449  1  0.57470639  0.96957151  0.15126817  1
  N  N1450  1  0.61082790  0.76675790  0.19034418  1
  Cu  Cu1451  1  0.62307897  0.89094394  0.49373625  1
  C  C1452  1  0.84187461  0.75552156  0.42888761  1
  C  C1453  1  0.92267319  0.75723903  0.34874518  1
  H  H1454  1  0.65473171  0.92184738  0.32031201  1
  N  N1455  1  0.95303842  0.97938763  0.36189808  1
  C  C1456  1  0.77880131  0.95190645  0.45679301  1
  N  N1457  1  0.64280972  0.94018703  0.35348486  1
  C  C1458  1  0.67828479  0.94982905  0.40436945  1
  H  H1459  1  0.77423122  0.92990577  0.36326056  1
  N  N1460  1  0.62636944  0.83268897  0.48390976  1
  C  C1461  1  0.78455196  0.76416661  0.07175799  1
  C  C1462  1  0.51073868  0.88185600  0.38574395  1
  C  C1463  1  0.51045792  0.95924134  0.12521535  1
  N  N1464  1  0.53682835  0.89782620  0.49446889  1
  H  H1465  1  0.99632218  0.80810577  0.34293912  1
  C  C1466  1  0.88721310  0.78322096  0.01920356  1
  H  H1467  1  0.71713050  0.75957392  0.00002584  1
  C  C1468  1  0.51674963  0.82090554  0.00334685  1
  H  H1469  1  0.93355657  0.86218312  0.87898669  1
  N  N1470  1  0.94461250  0.77541385  0.98875888  1
  H  H1471  1  0.57454580  0.84691467  0.84863992  1
  H  H1472  1  0.50529417  0.87235480  0.71627187  1
  C  C1473  1  0.89800817  0.81845783  0.77459991  1
  H  H1474  1  0.58558491  0.76145211  0.89299847  1
  H  H1475  1  0.94983521  0.99294155  0.81495347  1
  N  N1476  1  0.56682477  0.79109102  0.61624862  1
  H  H1477  1  0.71562631  0.97721517  0.72930948  1
  C  C1478  1  0.90642275  0.98088276  0.66994052  1
  H  H1479  1  0.71364284  0.85861371  0.95633857  1
  C  C1480  1  0.65338587  0.86790719  0.63807028  1
  H  H1481  1  0.57249097  0.92434670  0.77655802  1
  N  N1482  1  0.59223283  0.87738713  0.85126899  1
  H  H1483  1  0.90236444  0.86970845  0.67316793  1
  H  H1484  1  0.63994526  0.95436671  0.89256002  1
  C  C1485  1  0.58973614  0.90980105  0.73517522  1
  C  C1486  1  0.97421956  0.85657165  0.84563133  1
  C  C1487  1  0.92185514  0.84181396  0.98636233  1
  H  H1488  1  0.63654496  0.87147916  0.96808455  1
  H  H1489  1  0.72132400  0.89657018  0.80369124  1
  H  H1490  1  0.72936729  0.94856652  0.83327571  1
  C  C1491  1  0.91946372  0.88977860  0.97152716  1
  C  C1492  1  0.64823358  0.79757250  0.82224342  1
  C  C1493  1  0.58581632  0.86095199  0.65273043  1
  C  C1494  1  0.55649099  0.90750330  0.88075031  1
  C  C1495  1  0.87592790  0.91084257  0.93404390  1
  C  C1496  1  0.74567116  0.96973449  0.50701174  1
  H  H1497  1  0.74075955  0.90509035  0.65451805  1
  Cu  Cu1498  1  0.53497788  0.90257162  0.57572382  1
  C  C1499  1  0.55147355  0.76901180  0.80072774  1
  C  C1500  1  0.77502875  0.98009515  0.56494089  1
  H  H1501  1  0.87979459  0.94460076  0.92594734  1
  H  H1502  1  0.55475935  0.79001882  0.70112707  1
  H  H1503  1  0.99580526  0.80273043  0.58391269  1
  N  N1504  1  0.89282626  0.77554710  0.77915710  1
  C  C1505  1  0.63596561  0.80452214  0.76056099  1
  H  H1506  1  0.98029616  0.91685813  0.77485887  1
  C  C1507  1  0.83914704  0.86026140  0.59129217  1
  C  C1508  1  0.82803957  0.88481110  0.90408600  1
  H  H1509  1  0.56516098  0.96428408  0.65565419  1
  N  N1510  1  0.80239683  0.80216021  0.73640502  1
  C  C1511  1  0.57514819  0.78796917  0.74753181  1
  H  H1512  1  0.82318969  0.91930615  0.54711063  1
  H  H1513  1  0.65226454  0.76380336  0.60590840  1
  H  H1514  1  0.82957720  0.85080756  0.91206627  1
  C  C1515  1  0.58600391  0.94780383  0.89504635  1
  C  C1516  1  0.55738269  0.87746446  0.70402362  1
  C  C1517  1  0.77421111  0.80006026  0.55496013  1
  H  H1518  1  0.72124596  0.79134954  0.87862775  1
  C  C1519  1  0.75815934  0.87166170  0.51232981  1
  N  N1520  1  0.88535359  0.87554571  0.63125773  1
  C  C1521  1  0.78075774  0.90129735  0.86640538  1
  C  C1522  1  0.54387053  0.83049596  0.61669789  1
  C  C1523  1  0.84365616  0.98104285  0.63538763  1
  H  H1524  1  0.87200532  0.92707562  0.72021431  1
  C  C1525  1  0.65345132  0.92209350  0.71269273  1
  H  H1526  1  0.84178322  0.79517978  0.62612025  1
  C  C1527  1  0.68681190  0.89984253  0.66623561  1
  H  H1528  1  0.75925512  0.76616108  0.55986282  1
  H  H1529  1  0.51632027  0.85612984  0.99667318  1
  H  H1530  1  0.74433307  0.80424548  0.81236137  1
  H  H1531  1  0.66508711  0.82314096  0.72825179  1
  C  C1532  1  0.96270469  0.83968344  0.78767842  1
  C  C1533  1  0.82137530  0.81676683  0.59179614  1
  H  H1534  1  0.64174266  0.87840625  0.84685237  1
  N  N1535  1  0.67608781  0.95898466  0.73653352  1
  N  N1536  1  0.96560744  0.81269676  0.96839536  1
  C  C1537  1  0.54844390  0.98279186  0.90278450  1
  C  C1538  1  0.59450339  0.77320535  0.84711132  1
  H  H1539  1  0.67378470  0.84965819  0.60203820  1
  H  H1540  1  0.89521930  0.90745598  0.62365968  1
  N  N1541  1  0.70889663  0.81084254  0.84428933  1
  N  N1542  1  0.68323063  0.87388246  0.98417297  1
  N  N1543  1  0.74100270  0.91785306  0.83492039  1
  C  C1544  1  0.83484142  0.76657941  0.75591963  1
  C  C1545  1  0.80852581  0.88669095  0.54869714  1
  N  N1546  1  0.74079109  0.98666087  0.61646578  1
  C  C1547  1  0.91623877  0.94786994  0.71378852  1
  H  H1548  1  0.90196127  0.82024889  0.51919397  1
  H  H1549  1  0.64737058  0.97746252  0.76410735  1
  N  N1550  1  0.84265148  0.83494651  0.74710889  1
  H  H1551  1  0.80796976  0.76134886  0.94203410  1
  C  C1552  1  0.97688521  0.94043323  0.73983805  1
  C  C1553  1  0.52925744  0.75932699  0.59363126  1
  C  C1554  1  0.52217422  0.97944252  0.63500764  1
  C  C1555  1  0.73977063  0.82858825  0.51664242  1
  N  N1556  1  0.78406130  0.98835985  0.66062217  1
  C  C1557  1  0.67534190  0.97411810  0.50630847  1
  N  N1558  1  0.95881759  0.99139378  0.50698057  1
  N  N1559  1  0.84028013  0.97610951  0.57643428  1
  H  H1560  1  0.65009343  0.98681254  0.54464360  1
  H  H1561  1  0.92372994  0.97499627  0.53093923  1
  H  H1562  1  0.98407346  0.97646696  0.92446304  1
  H  H1563  1  0.96888408  0.94960794  0.99603552  1
