# generated using pymatgen
data_Zn5H26C45(N5O4)3
_symmetry_space_group_name_H-M   'P 1'
_cell_length_a   14.19284459
_cell_length_b   22.72952627
_cell_length_c   36.39464378
_cell_angle_alpha   90.00000000
_cell_angle_beta   90.00000000
_cell_angle_gamma   90.00000000
_symmetry_Int_Tables_number   1
_chemical_formula_structural   Zn5H26C45(N5O4)3
_chemical_formula_sum   'Zn40 H208 C360 N120 O96'
_cell_volume   11740.78957988
_cell_formula_units_Z   8
loop_
 _symmetry_equiv_pos_site_id
 _symmetry_equiv_pos_as_xyz
  1  'x, y, z'
loop_
 _atom_site_type_symbol
 _atom_site_label
 _atom_site_symmetry_multiplicity
 _atom_site_fract_x
 _atom_site_fract_y
 _atom_site_fract_z
 _atom_site_occupancy
  N  N0  1  0.02657838  0.28567951  0.14751147  1
  C  C1  1  0.15473692  0.20176532  0.02788866  1
  C  C2  1  0.08943436  0.19203717  0.05722542  1
  N  N3  1  0.02406708  0.34182941  0.08016978  1
  N  N4  1  0.06995757  0.22936321  0.12210946  1
  H  H5  1  0.20396756  0.30661090  0.15847606  1
  H  H6  1  0.20589901  0.23638733  0.03018982  1
  C  C7  1  0.03442989  0.13858664  0.06087753  1
  C  C8  1  0.41227746  0.26896579  0.17508271  1
  N  N9  1  0.39906135  0.07029975  0.18998029  1
  H  H10  1  0.12330307  0.03182068  0.20814225  1
  C  C11  1  0.44178841  0.01733470  0.02744102  1
  O  O12  1  0.37332201  0.35078312  0.09122348  1
  C  C13  1  0.36264964  0.16700329  0.16180174  1
  C  C14  1  0.34574062  0.18033313  0.12420332  1
  O  O15  1  0.45316545  0.37915780  0.13823994  1
  N  N16  1  0.08449223  0.14529956  0.13256729  1
  H  H17  1  0.31534595  0.14763863  0.10667806  1
  C  C18  1  0.40244946  0.34412520  0.12270906  1
  C  C19  1  0.39118770  0.21016650  0.18786609  1
  H  H20  1  0.46841883  0.15436994  0.04473481  1
  H  H21  1  0.18939185  0.08981327  0.14837226  1
  C  C22  1  0.07298627  0.23935748  0.08620340  1
  H  H23  1  0.08127281  0.30874995  0.03701489  1
  C  C24  1  0.33757709  0.10278823  0.17396755  1
  N  N25  1  0.07652676  0.28925715  0.19183466  1
  C  C26  1  0.35787459  0.23843575  0.11226109  1
  O  O27  1  0.18611392  0.30328733  0.18440605  1
  H  H28  1  0.43526495  0.30494570  0.19266972  1
  H  H29  1  0.34258163  0.25068964  0.08349600  1
  C  C30  1  0.39249830  0.28033957  0.13787896  1
  C  C31  1  0.34727053  0.01927595  0.03378882  1
  C  C32  1  0.24945399  0.07414636  0.16591934  1
  C  C33  1  0.05298952  0.29551592  0.06434652  1
  C  C34  1  0.04669446  0.09612853  0.03319347  1
  Zn  Zn35  1  0.07486333  0.23849077  0.23804542  1
  N  N36  1  0.05051924  0.15054889  0.24702001  1
  O  O37  1  0.23062292  0.03605078  0.07966881  1
  N  N38  1  0.05231316  0.11525729  0.15644052  1
  H  H39  1  0.39419672  0.20112634  0.21847721  1
  H  H40  1  0.19853197  0.01152573  0.01273314  1
  C  C41  1  0.09543560  0.01214369  0.23292602  1
  C  C42  1  0.27499732  0.01182454  0.00716487  1
  C  C43  1  0.31245837  0.02647929  0.07499351  1
  H  H44  1  0.49328456  0.01955022  0.04946754  1
  H  H45  1  0.48905456  0.42515603  0.04111263  1
  N  N46  1  0.25615866  0.02117113  0.17923472  1
  O  O47  1  0.37348023  0.02390529  0.09855802  1
  H  H48  1  0.00685527  0.05467753  0.03238232  1
  C  C49  1  0.10338341  0.11071048  0.00364327  1
  O  O50  1  0.07029233  0.16890362  0.44994486  1
  O  O51  1  0.14266089  0.10491060  0.41548612  1
  C  C52  1  0.39060550  0.17063606  0.33342105  1
  O  O53  1  0.40330720  0.10653294  0.27615757  1
  C  C54  1  0.38210086  0.22614125  0.38877707  1
  O  O55  1  0.00957560  0.44472097  0.41796476  1
  C  C56  1  0.06307203  0.32723974  0.29760546  1
  C  C57  1  0.39830987  0.16496594  0.29298997  1
  H  H58  1  0.37257728  0.07727524  0.34046869  1
  C  C59  1  0.33676894  0.44749809  0.38531794  1
  C  C60  1  0.10583208  0.20140976  0.38562762  1
  C  C61  1  0.16637244  0.19854329  0.35391296  1
  H  H62  1  0.00405316  0.40915267  0.33053363  1
  H  H63  1  0.20500163  0.24027610  0.30175609  1
  C  C64  1  0.36754719  0.17535858  0.41156973  1
  C  C65  1  0.28930830  0.14316643  0.46701562  1
  O  O66  1  0.41796557  0.35370001  0.40931096  1
  C  C67  1  0.19730679  0.14173022  0.26472633  1
  C  C68  1  0.03084186  0.29352550  0.36020742  1
  H  H69  1  0.22539333  0.16797121  0.35276330  1
  H  H70  1  0.36730224  0.07773029  0.40605093  1
  C  C71  1  0.35505180  0.18464525  0.45163224  1
  H  H72  1  0.26611690  0.10110673  0.45561122  1
  H  H73  1  0.38801039  0.26798415  0.40588341  1
  C  C74  1  0.10533579  0.15201175  0.42085371  1
  C  C75  1  0.37998306  0.11866799  0.35453212  1
  O  O76  1  0.28630303  0.35621187  0.38283367  1
  C  C77  1  0.37233787  0.12019988  0.39184417  1
  H  H78  1  0.14172658  0.48078300  0.26485515  1
  C  C79  1  0.23823125  0.47067478  0.38003416  1
  N  N80  1  0.39232840  0.23313407  0.46726585  1
  H  H81  1  0.43449653  0.08493036  0.29447215  1
  C  C82  1  0.38496805  0.22712362  0.35009174  1
  C  C83  1  0.01838925  0.38361724  0.30467142  1
  H  H84  1  0.39251514  0.26878517  0.33536936  1
  C  C85  1  0.08243128  0.28425211  0.32660311  1
  H  H86  1  0.42112305  0.48569251  0.45440423  1
  C  C87  1  0.15755554  0.23978557  0.32596643  1
  C  C88  1  0.35694573  0.38065440  0.39344846  1
  O  O89  1  0.39649671  0.20570486  0.27334145  1
  H  H90  1  0.18063055  0.43850418  0.38548983  1
  C  C91  1  0.08460116  0.04694005  0.26578997  1
  C  C92  1  0.10711751  0.11044641  0.26044284  1
  H  H93  1  0.49008493  0.29630884  0.27337634  1
  H  H94  1  0.05069690  0.04111758  0.32695921  1
  N  N95  1  0.06855288  0.31783182  0.26228454  1
  C  C96  1  0.06096205  0.01889687  0.29961825  1
  H  H97  1  0.26783808  0.12410013  0.27273235  1
  C  C98  1  0.40095709  0.47597275  0.35665064  1
  C  C99  1  0.05315370  0.24976866  0.38532459  1
  C  C100  1  0.30260263  0.48416167  0.41513034  1
  N  N101  1  0.48487892  0.47200801  0.44406776  1
  O  O102  1  0.29917640  0.49273803  0.44657671  1
  H  H103  1  0.48896336  0.46448411  0.41561915  1
  H  H104  1  0.14919707  0.49956532  0.49324000  1
  O  O105  1  0.48333784  0.46674746  0.35586064  1
  C  C106  1  0.24064579  0.49875800  0.34044044  1
  N  N107  1  0.06044453  0.03142838  0.49619546  1
  N  N108  1  0.24720354  0.14202585  0.49790092  1
  N  N109  1  0.19263998  0.19373801  0.25397301  1
  C  C110  1  0.43763631  0.27485652  0.74189885  1
  C  C111  1  0.29526427  0.28400340  0.59709032  1
  C  C112  1  0.09503911  0.49667676  0.51392317  1
  O  O113  1  0.17354858  0.06896187  0.59848595  1
  C  C114  1  0.22065350  0.24403273  0.60806197  1
  O  O115  1  0.28305804  0.07182997  0.55746559  1
  H  H116  1  0.21308145  0.02811614  0.65571172  1
  N  N117  1  0.04439638  0.11051103  0.54250756  1
  N  N118  1  0.31381419  0.27560788  0.56364228  1
  C  C119  1  0.35454171  0.02761013  0.68176030  1
  O  O120  1  0.10563193  0.38104726  0.60948732  1
  Zn  Zn121  1  0.41783439  0.30819848  0.53491772  1
  H  H122  1  0.25902564  0.15291552  0.65347412  1
  C  C123  1  0.45445804  0.03906042  0.67702784  1
  C  C124  1  0.20971312  0.18385336  0.66560024  1
  H  H125  1  0.06386125  0.31072912  0.71434242  1
  Zn  Zn126  1  0.25340363  0.21201261  0.53213411  1
  Zn  Zn127  1  0.07084889  0.16857700  0.58053333  1
  O  O128  1  0.38697369  0.29502493  0.66642542  1
  C  C129  1  0.11021893  0.46083862  0.54439674  1
  H  H130  1  0.34126896  0.31159006  0.61624823  1
  C  C131  1  0.17563148  0.17495296  0.70114680  1
  C  C132  1  0.41703564  0.24733263  0.67450081  1
  C  C133  1  0.18166120  0.23525604  0.64678484  1
  N  N134  1  0.18550650  0.21571129  0.57908518  1
  H  H135  1  0.03456231  0.45632878  0.72506240  1
  C  C136  1  0.42514165  0.06078972  0.61116372  1
  H  H137  1  0.19818867  0.13545789  0.71499790  1
  Zn  Zn138  1  0.16563235  0.08097180  0.51843958  1
  O  O139  1  0.42798922  0.20512341  0.65145504  1
  C  C140  1  0.28991678  0.03742369  0.65388771  1
  C  C141  1  0.32865496  0.05350915  0.61948164  1
  H  H142  1  0.11410502  0.32346426  0.64876270  1
  C  C143  1  0.12296243  0.22001065  0.71661733  1
  C  C144  1  0.23496970  0.48004749  0.73278278  1
  H  H145  1  0.43434991  0.13634866  0.70056347  1
  C  C146  1  0.44723819  0.16909458  0.72299999  1
  C  C147  1  0.13481593  0.28355953  0.66470241  1
  C  C148  1  0.43023284  0.23002780  0.71614535  1
  C  C149  1  0.25764096  0.06800790  0.58996769  1
  C  C150  1  0.10331693  0.27596763  0.69999060  1
  H  H151  1  0.45082232  0.06639618  0.58297536  1
  H  H152  1  0.33441613  0.00935239  0.70972791  1
  H  H153  1  0.18256970  0.44402705  0.55119407  1
  C  C154  1  0.48767912  0.05786798  0.64100311  1
  O  O155  1  0.16470986  0.44894990  0.73795406  1
  H  H156  1  0.42044933  0.32228558  0.73448315  1
  N  N157  1  0.36165177  0.24499005  0.50064953  1
  O  O158  1  0.03034737  0.00941443  0.68506657  1
  C  C159  1  0.03317656  0.45068723  0.56839525  1
  C  C160  1  0.02990047  0.40415964  0.60025336  1
  H  H161  1  0.10259290  0.30084459  0.86430518  1
  C  C162  1  0.09021862  0.20921794  0.75519568  1
  C  C163  1  0.48192597  0.19638213  0.78579754  1
  H  H164  1  0.17073248  0.08468055  0.81518620  1
  C  C165  1  0.29744160  0.25851718  0.96106833  1
  C  C166  1  0.05393686  0.23113259  0.89744157  1
  C  C167  1  0.22328556  0.20306662  0.91201419  1
  O  O168  1  0.13236427  0.16369271  0.77162143  1
  O  O169  1  0.22377344  0.32607252  0.85861288  1
  C  C170  1  0.30669080  0.21920486  0.93297796  1
  N  N171  1  0.05167376  0.11644963  0.78805426  1
  C  C172  1  0.09506077  0.08004578  0.80955429  1
  O  O173  1  0.03370417  0.24081721  0.76887549  1
  H  H174  1  0.44399246  0.36911165  0.81137365  1
  H  H175  1  0.37594334  0.19753073  0.92747728  1
  C  C176  1  0.46640735  0.25579005  0.77730180  1
  O  O177  1  0.06717114  0.02284923  0.97253603  1
  N  N178  1  0.24990403  0.47187650  0.84265872  1
  C  C179  1  0.42826394  0.40663896  0.79332624  1
  N  N180  1  0.13678597  0.40221175  0.83038751  1
  H  H181  1  0.22044160  0.17064690  0.88957051  1
  N  N182  1  0.05230279  0.26769233  0.86970442  1
  C  C183  1  0.21242201  0.37537539  0.84889517  1
  C  C184  1  0.15745220  0.16009406  0.99882792  1
  C  C185  1  0.14297845  0.23882878  0.91979243  1
  H  H186  1  0.28029851  0.38440249  0.78110197  1
  O  O187  1  0.02196543  0.39654760  0.89726924  1
  H  H188  1  0.06689862  0.30296844  0.95355349  1
  H  H189  1  0.34126261  0.32975239  0.89776314  1
  C  C190  1  0.42824784  0.01274740  0.92386446  1
  H  H191  1  0.20593146  0.16586103  0.97470307  1
  C  C192  1  0.13667081  0.28040372  0.94971086  1
  C  C193  1  0.37130908  0.41830623  0.87590753  1
  C  C194  1  0.48909805  0.16695786  0.87700850  1
  C  C195  1  0.27969322  0.42381066  0.85773281  1
  C  C196  1  0.37193565  0.04721289  0.90212875  1
  H  H197  1  0.35369368  0.09626449  0.86226712  1
  C  C198  1  0.03065205  0.03714057  0.82812706  1
  H  H199  1  0.25449931  0.00745870  0.94646528  1
  O  O200  1  0.45419354  0.23925065  0.99200407  1
  O  O201  1  0.14379293  0.08308390  0.93925123  1
  N  N202  1  0.32199530  0.07665452  0.88430598  1
  C  C203  1  0.30424190  0.00770081  0.97128935  1
  C  C204  1  0.21779535  0.29483970  0.96880578  1
  N  N205  1  0.43887785  0.17539573  0.84813246  1
  H  H206  1  0.19204627  0.00614857  0.81500945  1
  H  H207  1  0.01666277  0.40786509  0.87285787  1
  C  C208  1  0.39157495  0.27423632  0.98389824  1
  C  C209  1  0.39328965  0.36693543  0.89668842  1
  C  C210  1  0.40125422  0.01107889  0.96342344  1
  C  C211  1  0.10863014  0.07084428  0.96863776  1
  O  O212  1  0.18412047  0.01172137  0.75588759  1
  N  N213  1  0.14570389  0.45804420  0.82228395  1
  C  C214  1  0.33140270  0.46440698  0.75387480  1
  C  C215  1  0.34042149  0.41362337  0.77486952  1
  C  C216  1  0.46371783  0.15149749  0.75946753  1
  H  H217  1  0.21791282  0.33349189  0.98727988  1
  H  H218  1  0.46554060  0.10750195  0.76795370  1
  C  C219  1  0.43431339  0.46660257  0.87279576  1
  C  C220  1  0.47659630  0.36712960  0.91646848  1
  C  C221  1  0.49597160  0.49383599  0.76075290  1
  C  C222  1  0.47262715  0.01612842  0.99069491  1
  H  H223  1  0.48441501  0.28902426  0.79978268  1
  O  O224  1  0.39161765  0.32373249  0.99796817  1
  N  N225  1  0.34825560  0.84986351  0.19614370  1
  C  C226  1  0.32655176  0.75076549  0.19236717  1
  C  C227  1  0.38432981  0.80186087  0.18017088  1
  C  C228  1  0.31784789  0.69229246  0.04247713  1
  H  H229  1  0.19239144  0.56914531  0.19237483  1
  H  H230  1  0.41463589  0.62061242  0.03035902  1
  C  C231  1  0.27268753  0.64763666  0.18601897  1
  O  O232  1  0.42531816  0.67318622  0.09105843  1
  O  O233  1  0.13764970  0.55533064  0.20969369  1
  O  O234  1  0.31630539  0.73763383  0.10037094  1
  C  C235  1  0.08037433  0.95109700  0.23353300  1
  C  C236  1  0.19951483  0.71242404  0.23171018  1
  O  O237  1  0.06663513  0.83349976  0.24061328  1
  C  C238  1  0.13760033  0.61128313  0.22814480  1
  C  C239  1  0.20082081  0.65789403  0.21539185  1
  N  N240  1  0.39422198  0.90038017  0.19316326  1
  C  C241  1  0.33309285  0.69415115  0.17584364  1
  C  C242  1  0.35603548  0.64904942  0.02048578  1
  H  H243  1  0.22510071  0.76772416  0.04869553  1
  Zn  Zn244  1  0.37057354  0.98583402  0.20742871  1
  C  C245  1  0.04448218  0.53487904  0.07977800  1
  C  C246  1  0.46969373  0.79450114  0.15824192  1
  C  C247  1  0.24902240  0.73286144  0.03091688  1
  H  H248  1  0.15370468  0.62595506  0.01978285  1
  H  H249  1  0.37475518  0.68816261  0.15187462  1
  C  C250  1  0.36029040  0.70442320  0.08100136  1
  O  O251  1  0.26746986  0.59882334  0.17018800  1
  H  H252  1  0.25781267  0.80343474  0.23145858  1
  C  C253  1  0.25866079  0.75821622  0.21975170  1
  H  H254  1  0.08859593  0.92525864  0.20842550  1
  H  H255  1  0.49622735  0.74934742  0.14929780  1
  C  C256  1  0.09537049  0.59621111  0.01222925  1
  O  O257  1  0.08272436  0.54028919  0.10797437  1
  C  C258  1  0.04208026  0.55896149  0.03778777  1
  H  H259  1  0.47166026  0.92597885  0.08891112  1
  H  H260  1  0.46346668  0.87365928  0.02505522  1
  O  O261  1  0.46654930  0.52112969  0.00292577  1
  C  C262  1  0.20818822  0.96782844  0.36216279  1
  H  H263  1  0.49441912  0.71682361  0.25749241  1
  Zn  Zn264  1  0.01334450  0.71978389  0.34973606  1
  C  C265  1  0.04349827  0.95834378  0.29950377  1
  Zn  Zn266  1  0.10883903  0.60640112  0.37908566  1
  C  C267  1  0.31702144  0.96612180  0.28680968  1
  H  H268  1  0.49347097  0.50674150  0.30770503  1
  N  N269  1  0.44475372  0.99362508  0.32068279  1
  O  O270  1  0.00202148  0.72078247  0.46364657  1
  N  N271  1  0.07124748  0.78314320  0.31616968  1
  H  H272  1  0.01915164  0.93239465  0.32373077  1
  C  C273  1  0.37736866  0.73068015  0.29588220  1
  C  C274  1  0.42018568  0.61924472  0.42384917  1
  C  C275  1  0.33197735  0.50188866  0.33084514  1
  N  N276  1  0.16002750  0.79330062  0.30987801  1
  C  C277  1  0.21343545  0.70471247  0.34641723  1
  H  H278  1  0.35006869  0.68511703  0.29733586  1
  H  H279  1  0.31758330  0.86723203  0.32947225  1
  C  C280  1  0.30888353  0.96489688  0.35930705  1
  C  C281  1  0.22638693  0.75820291  0.32576160  1
  H  H282  1  0.44286837  0.96425515  0.39163992  1
  C  C283  1  0.18167037  0.96748639  0.46415537  1
  C  C284  1  0.06690051  0.56354289  0.44979849  1
  N  N285  1  0.13361355  0.68457148  0.35810748  1
  C  C286  1  0.32531362  0.96448805  0.42579249  1
  N  N287  1  0.02052526  0.52053490  0.28713361  1
  N  N288  1  0.47927732  0.99640006  0.28795036  1
  N  N289  1  0.12237572  0.56823250  0.42622211  1
  N  N290  1  0.08808619  0.54096311  0.34473145  1
  H  H291  1  0.24681167  0.95546242  0.27481989  1
  H  H292  1  0.35253971  0.52598973  0.30514944  1
  C  C293  1  0.32482332  0.77591718  0.31350897  1
  C  C294  1  0.43457973  0.85253157  0.29249782  1
  C  C295  1  0.15181041  0.51604729  0.32344668  1
  H  H296  1  0.37158745  0.62063596  0.47234441  1
  C  C297  1  0.36607069  0.96351426  0.39228287  1
  C  C298  1  0.03999335  0.85988698  0.26708239  1
  H  H299  1  0.27578997  0.67665820  0.35469637  1
  C  C300  1  0.16721416  0.96492599  0.39614243  1
  C  C301  1  0.35585411  0.83495477  0.31293706  1
  C  C302  1  0.35219177  0.97586394  0.32339649  1
  H  H303  1  0.18507922  0.54769810  0.43069244  1
  O  O304  1  0.08931362  0.97381380  0.46781804  1
  O  O305  1  0.43579888  0.61855602  0.46387572  1
  C  C306  1  0.22386931  0.96502413  0.42708308  1
  O  O307  1  0.34320189  0.62853719  0.41240559  1
  H  H308  1  0.43678926  0.61945715  0.34798170  1
  H  H309  1  0.36423583  0.97279505  0.45061296  1
  C  C310  1  0.05651829  0.92603845  0.26792736  1
  N  N311  1  0.37923172  0.97806115  0.26317977  1
  H  H312  1  0.45777552  0.89882016  0.28994675  1
  C  C313  1  0.47973252  0.80748881  0.27328004  1
  C  C314  1  0.45428158  0.74689507  0.27603952  1
  O  O315  1  0.44945650  0.61283899  0.28435226  1
  C  C316  1  0.11255769  0.50839902  0.28650798  1
  H  H317  1  0.08845733  0.96914484  0.40080103  1
  H  H318  1  0.16730880  0.97536717  0.33781869  1
  O  O319  1  0.23242693  0.97140786  0.49104682  1
  H  H320  1  0.15995664  0.72590419  0.25597533  1
  O  O321  1  0.08615699  0.61843125  0.25423323  1
  N  N322  1  0.21497262  0.68914894  0.71699406  1
  C  C323  1  0.02089196  0.86034885  0.72711567  1
  N  N324  1  0.22341385  0.74293543  0.72281642  1
  O  O325  1  0.23479474  0.52357143  0.71392219  1
  H  H326  1  0.38694785  0.94206598  0.69686548  1
  H  H327  1  0.01679288  0.64047569  0.67910261  1
  H  H328  1  0.29926421  0.84019481  0.68577156  1
  C  C329  1  0.29589843  0.86592394  0.71190601  1
  C  C330  1  0.34128620  0.91907924  0.71772076  1
  C  C331  1  0.00618473  0.52371933  0.50680702  1
  H  H332  1  0.38967154  0.53929070  0.72723238  1
  H  H333  1  0.02967115  0.52842354  0.66997113  1
  O  O334  1  0.07541435  0.92596238  0.65977628  1
  C  C335  1  0.04827261  0.95605540  0.68671625  1
  O  O336  1  0.48354947  0.51508781  0.66394352  1
  C  C337  1  0.24595335  0.84692900  0.74331631  1
  C  C338  1  0.40432871  0.50438801  0.74633716  1
  C  C339  1  0.02313000  0.91754998  0.72411377  1
  C  C340  1  0.21384470  0.78740904  0.74915915  1
  H  H341  1  0.03358160  0.76836481  0.74995518  1
  Zn  Zn342  1  0.08065625  0.54606629  0.80897193  1
  C  C343  1  0.18302270  0.77095398  0.78550702  1
  N  N344  1  0.18785006  0.60447048  0.81017157  1
  C  C345  1  0.00810013  0.81496764  0.82278087  1
  C  C346  1  0.18544017  0.91415392  0.89050656  1
  N  N347  1  0.18006101  0.71478894  0.79468058  1
  H  H348  1  0.41721773  0.50223962  0.85242692  1
  H  H349  1  0.16383050  0.76080603  0.98550872  1
  C  C350  1  0.07059546  0.98926813  0.85087004  1
  H  H351  1  0.29751023  0.92787116  0.85010800  1
  N  N352  1  0.40835588  0.74567700  0.83572776  1
  C  C353  1  0.01220814  0.78241263  0.84972266  1
  N  N354  1  0.14472987  0.70787975  0.92144672  1
  H  H355  1  0.34546265  0.60784165  0.96861505  1
  O  O356  1  0.32830723  0.86021322  0.91418212  1
  H  H357  1  0.07523041  0.89778450  0.92597622  1
  O  O358  1  0.20005763  0.84397493  0.94385527  1
  C  C359  1  0.22566084  0.96862643  0.75934974  1
  Zn  Zn360  1  0.18124891  0.64571211  0.76353866  1
  O  O361  1  0.40491391  0.99121588  0.80138941  1
  H  H362  1  0.29900843  0.58774759  0.92428142  1
  N  N363  1  0.39996754  0.58513833  0.82043558  1
  C  C364  1  0.46030489  0.70965886  0.84666302  1
  H  H365  1  0.43415179  0.78763409  0.84328165  1
  H  H366  1  0.37384775  0.62420127  0.80686969  1
  Zn  Zn367  1  0.17904780  0.67495485  0.84219160  1
  C  C368  1  0.21589649  0.67235098  0.93375600  1
  C  C369  1  0.23567451  0.89932127  0.76845488  1
  C  C370  1  0.06735650  0.59075746  0.97721255  1
  H  H371  1  0.17594140  0.79784080  0.80982305  1
  H  H372  1  0.22980775  0.88945725  0.79928591  1
  C  C373  1  0.24249829  0.68206945  0.97237066  1
  N  N374  1  0.11652378  0.70929610  0.88780653  1
  N  N375  1  0.04952998  0.54223131  0.86704681  1
  C  C376  1  0.09416100  0.91892495  0.90095819  1
  C  C377  1  0.01470278  0.94475336  0.75944230  1
  N  N378  1  0.01239707  0.75187584  0.88035848  1
  N  N379  1  0.25130631  0.62212705  0.87860347  1
  C  C380  1  0.26294241  0.62673801  0.91343869  1
  N  N381  1  0.06195000  0.55714166  0.90162061  1
  O  O382  1  0.45990779  0.91027442  0.77482736  1
  C  C383  1  0.24382227  0.87004216  0.91934925  1
  Zn  Zn384  1  0.28241526  0.56128432  0.83836852  1
  H  H385  1  0.40640912  0.55307048  0.80037455  1
  C  C386  1  0.40211157  0.95253437  0.77934137  1
  N  N387  1  0.05801102  0.60574973  0.76846781  1
  H  H388  1  0.10966392  0.62004491  0.95859509  1
  C  C389  1  0.22563905  0.94202384  0.86047839  1
  O  O390  1  0.47664932  0.67761568  0.75340046  1
  C  C391  1  0.20922536  0.72839507  0.99553209  1
  C  C392  1  0.02795828  0.95570771  0.88250288  1
  C  C393  1  0.01661075  0.81700793  0.75269410  1
  C  C394  1  0.31634964  0.94074999  0.75310678  1
  C  C395  1  0.00368338  0.91008749  0.79043880  1
  C  C396  1  0.31636819  0.64422501  0.98582268  1
  C  C397  1  0.16406253  0.98125040  0.84070651  1
  H  H398  1  0.00621117  0.92963319  0.81865783  1
  C  C399  1  0.00574685  0.84709712  0.78914621  1
  H  H400  1  0.01148048  0.99292449  0.76069005  1
  C  C401  1  0.78807412  0.18822963  0.12736625  1
  N  N402  1  0.66358108  0.05241531  0.15809787  1
  C  C403  1  0.56580150  0.43428980  0.04228187  1
  H  H404  1  0.76732990  0.32194902  0.14775347  1
  C  C405  1  0.82379515  0.21031566  0.09474673  1
  H  H406  1  0.61088939  0.24319485  0.00091679  1
  O  O407  1  0.91831557  0.04698359  0.10622366  1
  Zn  Zn408  1  0.79266492  0.34597859  0.21842519  1
  N  N409  1  0.60847015  0.09509723  0.21913115  1
  Zn  Zn410  1  0.72639387  0.10817000  0.19398913  1
  C  C411  1  0.71884392  0.08790575  0.03710524  1
  N  N412  1  0.84625290  0.11139964  0.22193006  1
  H  H413  1  0.88433769  0.44336935  0.10520128  1
  N  N414  1  0.64173783  0.33598563  0.20546143  1
  H  H415  1  0.79219077  0.07188770  0.03270580  1
  H  H416  1  0.95316655  0.23259783  0.04220461  1
  C  C417  1  0.57010847  0.41213806  0.23906889  1
  C  C418  1  0.60928154  0.48044324  0.02399213  1
  H  H419  1  0.60473819  0.43815792  0.18268553  1
  N  N420  1  0.93993458  0.21567474  0.22128921  1
  C  C421  1  0.59165421  0.13090662  0.07589573  1
  Zn  Zn422  1  0.96024868  0.35545766  0.12638149  1
  H  H423  1  0.84122457  0.46559773  0.04901658  1
  N  N424  1  0.71572265  0.17189637  0.15181783  1
  N  N425  1  0.64978108  0.31697213  0.11847949  1
  C  C426  1  0.68678575  0.02698575  0.12746905  1
  N  N427  1  0.80232229  0.26132446  0.20603272  1
  C  C428  1  0.76331129  0.38667527  0.10342507  1
  H  H429  1  0.73414614  0.49532944  0.13598036  1
  H  H430  1  0.99213481  0.12844904  0.08594284  1
  N  N431  1  0.90203519  0.35486786  0.17959798  1
  C  C432  1  0.76144957  0.45909537  0.04841784  1
  Zn  Zn433  1  0.53521639  0.05359704  0.17752576  1
  C  C434  1  0.58513226  0.45316986  0.20973573  1
  C  C435  1  0.71816272  0.41576262  0.07192223  1
  H  H436  1  0.73835988  0.11096272  0.09110944  1
  C  C437  1  0.80544211  0.22880465  0.05619988  1
  N  N438  1  0.70483601  0.17736106  0.22099343  1
  N  N439  1  0.88732482  0.41666466  0.22145208  1
  N  N440  1  0.84850609  0.41021688  0.11849222  1
  N  N441  1  0.62668128  0.27407214  0.14232540  1
  Zn  Zn442  1  0.92608880  0.25948956  0.17921756  1
  H  H443  1  0.65208280  0.15787534  0.14062055  1
  H  H444  1  0.55985165  0.25748717  0.13754241  1
  N  N445  1  0.87839392  0.20146340  0.12480697  1
  C  C446  1  0.58021618  0.34721065  0.23149788  1
  H  H447  1  0.59692048  0.36175207  0.07885433  1
  Zn  Zn448  1  0.67149393  0.24953003  0.19377615  1
  H  H449  1  0.65313872  0.22624988  0.06627141  1
  C  C450  1  0.70921286  0.22910491  0.04496058  1
  C  C451  1  0.62216727  0.40239093  0.06593142  1
  C  C452  1  0.54013458  0.13809240  0.04138114  1
  C  C453  1  0.88000857  0.23651138  0.03120695  1
  H  H454  1  0.75812000  0.03114947  0.11650371  1
  C  C455  1  0.73288661  0.34099690  0.12479839  1
  C  C456  1  0.68573523  0.11047034  0.06910612  1
  Zn  Zn457  1  0.86274027  0.44356735  0.17152103  1
  Zn  Zn458  1  0.96838047  0.13416612  0.20186508  1
  C  C459  1  0.70449932  0.49641412  0.02830648  1
  N  N460  1  0.57884945  0.25202323  0.23527700  1
  O  O461  1  0.56600263  0.14762711  0.10699932  1
  C  C462  1  0.90549759  0.02312064  0.07893986  1
  Zn  Zn463  1  0.82310926  0.19550378  0.24195163  1
  C  C464  1  0.68821357  0.23998961  0.00862052  1
  C  C465  1  0.57304906  0.11803268  0.00823173  1
  O  O466  1  0.97375721  0.49909098  0.06975785  1
  Zn  Zn467  1  0.99778444  0.35945339  0.22246162  1
  C  C468  1  0.66244849  0.08906744  0.00505367  1
  C  C469  1  0.53501151  0.29741860  0.24872212  1
  C  C470  1  0.73609869  0.47274650  0.47167011  1
  H  H471  1  0.76077320  0.37860550  0.28210223  1
  N  N472  1  0.78562440  0.33754242  0.27138039  1
  N  N473  1  0.83422317  0.20066871  0.29466151  1
  Zn  Zn474  1  0.58384948  0.02038893  0.25154263  1
  C  C475  1  0.81763270  0.24934623  0.31403112  1
  C  C476  1  0.83304784  0.23207841  0.47418513  1
  C  C477  1  0.60219206  0.15432246  0.33340619  1
  H  H478  1  0.61205246  0.05269392  0.33449777  1
  C  C479  1  0.79766782  0.30180995  0.29432896  1
  C  C480  1  0.60120980  0.17801951  0.37247147  1
  N  N481  1  0.58936655  0.19189651  0.30499520  1
  H  H482  1  0.57715460  0.11654693  0.45947868  1
  C  C483  1  0.82570531  0.46434611  0.45736712  1
  H  H484  1  0.89038675  0.45926141  0.47455700  1
  C  C485  1  0.67037191  0.46091317  0.40733474  1
  C  C486  1  0.60580454  0.23983605  0.38108254  1
  N  N487  1  0.60803873  0.09285351  0.28443697  1
  C  C488  1  0.93584080  0.44546232  0.40119414  1
  C  C489  1  0.61110285  0.09535531  0.31947366  1
  H  H490  1  0.80420508  0.34503082  0.36856289  1
  C  C491  1  0.82280162  0.24893604  0.35549704  1
  C  C492  1  0.60696278  0.25561249  0.41872370  1
  H  H493  1  0.82860634  0.15288605  0.35432426  1
  C  C494  1  0.65584415  0.46876099  0.44452467  1
  H  H495  1  0.78239805  0.44886876  0.36485454  1
  C  C496  1  0.84064183  0.18533500  0.41059219  1
  C  C497  1  0.82915341  0.23824386  0.43091114  1
  H  H498  1  0.60217115  0.27171361  0.35896489  1
  Zn  Zn499  1  0.60826530  0.29589366  0.47128215  1
  C  C500  1  0.87110300  0.02757225  0.44276462  1
  H  H501  1  0.85261735  0.14286480  0.42476651  1
  H  H502  1  0.84275319  0.15823806  0.29916432  1
  H  H503  1  0.81423510  0.33053379  0.43617276  1
  H  H504  1  0.58201607  0.08728446  0.39453343  1
  C  C505  1  0.83592020  0.45912743  0.41955856  1
  C  C506  1  0.82048348  0.29443876  0.41628261  1
  C  C507  1  0.83211690  0.19295536  0.37188407  1
  C  C508  1  0.60270698  0.21264476  0.44575949  1
  Zn  Zn509  1  0.91105395  0.48177314  0.25913698  1
  H  H510  1  0.61003854  0.46050149  0.38557179  1
  C  C511  1  0.88193288  0.02806835  0.48120318  1
  C  C512  1  0.59286607  0.15181515  0.43918847  1
  C  C513  1  0.81527756  0.30133514  0.37797008  1
  H  H514  1  0.93841818  0.03412686  0.42730076  1
  C  C515  1  0.59321949  0.13547250  0.40166975  1
  C  C516  1  0.76308820  0.45800839  0.39454745  1
  Zn  Zn517  1  0.59726277  0.16463737  0.25198910  1
  O  O518  1  0.93334752  0.43144734  0.36903000  1
  H  H519  1  0.58348612  0.23496393  0.29942425  1
  H  H520  1  0.53425034  0.40393617  0.29851528  1
  C  C521  1  0.54112441  0.43485931  0.27418738  1
  C  C522  1  0.56667331  0.47361805  0.46246253  1
  O  O523  1  0.53310097  0.01589500  0.44945337  1
  C  C524  1  0.51408361  0.49450910  0.27907251  1
  H  H525  1  0.97585283  0.32893929  0.36403320  1
  N  N526  1  0.99127704  0.40634205  0.27361323  1
  C  C527  1  0.78170169  0.01866108  0.42580071  1
  C  C528  1  0.70614805  0.01155111  0.44831789  1
  C  C529  1  0.71030109  0.01555387  0.48705994  1
  H  H530  1  0.77334156  0.01857455  0.39625936  1
  O  O531  1  0.85235449  0.18452139  0.48842160  1
  O  O532  1  0.82210585  0.27788058  0.49257440  1
  N  N533  1  0.86306449  0.06149857  0.25522491  1
  C  C534  1  0.80251668  0.02164866  0.25686178  1
  C  C535  1  0.77986855  0.07999283  0.64519236  1
  N  N536  1  0.55778682  0.04208106  0.73721424  1
  H  H537  1  0.66343629  0.42257950  0.61153047  1
  C  C538  1  0.78985735  0.47169439  0.71068985  1
  C  C539  1  0.79899140  0.10696492  0.70884460  1
  C  C540  1  0.85607479  0.34432379  0.73760186  1
  H  H541  1  0.89877277  0.10699723  0.54499990  1
  O  O542  1  0.78021998  0.04331882  0.58802533  1
  H  H543  1  0.84046880  0.05024433  0.65047391  1
  C  C544  1  0.56166010  0.41345289  0.69766892  1
  C  C545  1  0.66722528  0.12142894  0.60358277  1
  N  N546  1  0.99975825  0.13502664  0.63345227  1
  C  C547  1  0.83796051  0.04596034  0.71685766  1
  O  O548  1  0.64502784  0.11536296  0.53805857  1
  O  O549  1  0.85153549  0.26590941  0.65572809  1
  C  C550  1  0.80306516  0.25172076  0.68034873  1
  C  C551  1  0.71892101  0.27447036  0.69960540  1
  H  H552  1  0.56581102  0.05787984  0.63831950  1
  N  N553  1  0.69839976  0.24689299  0.73006584  1
  H  H554  1  0.83750793  0.20889057  0.69175856  1
  C  C555  1  0.68930643  0.35131267  0.65197270  1
  N  N556  1  0.96128820  0.17992077  0.62331438  1
  H  H557  1  0.83989244  0.32663634  0.71010458  1
  C  C558  1  0.74917506  0.11740592  0.67261225  1
  C  C559  1  0.74302694  0.07829501  0.60856123  1
  C  C560  1  0.67178945  0.32839934  0.68838524  1
  C  C561  1  0.63190692  0.15554789  0.63184117  1
  H  H562  1  0.83435552  0.00335622  0.69939278  1
  C  C563  1  0.60878898  0.36269836  0.71013551  1
  H  H564  1  0.80366670  0.02987979  0.53583144  1
  N  N565  1  0.60618000  0.34675835  0.51689394  1
  H  H566  1  0.56466799  0.17949659  0.62186150  1
  C  C567  1  0.96615816  0.08991079  0.53136075  1
  C  C568  1  0.94662099  0.47976225  0.56235278  1
  C  C569  1  0.67334021  0.15782274  0.66687671  1
  H  H570  1  0.65104728  0.18697119  0.68937806  1
  C  C571  1  0.64802705  0.40321179  0.63890877  1
  H  H572  1  0.73416159  0.32465420  0.63453512  1
  N  N573  1  0.82604396  0.13907735  0.73686913  1
  C  C574  1  0.62084693  0.13838980  0.56638679  1
  H  H575  1  0.72370544  0.45347053  0.72193839  1
  O  O576  1  0.55692104  0.17513869  0.56683721  1
  H  H577  1  0.65161387  0.26378375  0.74949565  1
  C  C578  1  0.58474901  0.43113444  0.66207370  1
  C  C579  1  0.87966757  0.45395666  0.72404436  1
  N  N580  1  0.87641506  0.04042082  0.74554158  1
  H  H581  1  0.50623006  0.43493784  0.71443281  1
  H  H582  1  0.88939943  0.47217550  0.58264368  1
  H  H583  1  0.62746016  0.12468504  0.74525315  1
  N  N584  1  0.54180937  0.34876583  0.53944393  1
  C  C585  1  0.97291913  0.04392666  0.50285342  1
  C  C586  1  0.51027710  0.04040610  0.71100018  1
  H  H587  1  0.59567939  0.34901775  0.73942683  1
  O  O588  1  0.70456082  0.48296669  0.50419955  1
  C  C589  1  0.79783260  0.02646389  0.50358043  1
  C  C590  1  0.97021218  0.47228253  0.71230225  1
  O  O591  1  0.95721956  0.38634610  0.61469035  1
  C  C592  1  0.54765487  0.49030679  0.64767564  1
  C  C593  1  0.58545759  0.48860293  0.50183707  1
  H  H594  1  0.64835572  0.01604952  0.50458906  1
  N  N595  1  0.87848587  0.40725796  0.78807711  1
  C  C596  1  0.52057365  0.47096033  0.89117399  1
  Zn  Zn597  1  0.87291364  0.47621927  0.82253683  1
  Zn  Zn598  1  0.86793993  0.33253085  0.81704837  1
  N  N599  1  0.84110711  0.30990652  0.76441035  1
  Zn  Zn600  1  0.82760177  0.01418805  0.85127626  1
  N  N601  1  0.96339495  0.27104713  0.83754808  1
  Zn  Zn602  1  0.64332593  0.04187625  0.89596165  1
  Zn  Zn603  1  0.87253873  0.20449764  0.84593237  1
  O  O604  1  0.70213962  0.41843261  0.94622837  1
  N  N605  1  0.69364798  0.04613632  0.84672622  1
  C  C606  1  0.77950921  0.02049610  0.97117941  1
  O  O607  1  0.92190919  0.25298937  0.96829622  1
  N  N608  1  0.75009541  0.18195109  0.86545761  1
  C  C609  1  0.51559607  0.17975788  0.82506990  1
  N  N610  1  0.69193527  0.09043807  0.93897317  1
  C  C611  1  0.50403862  0.44543449  0.78561865  1
  Zn  Zn612  1  0.68116643  0.25581928  0.84221201  1
  H  H613  1  0.86269635  0.26661635  0.93430830  1
  C  C614  1  0.66611278  0.47620032  0.80669501  1
  Zn  Zn615  1  0.89821790  0.10117551  0.78325081  1
  C  C616  1  0.53785160  0.41670535  0.91564717  1
  C  C617  1  0.86391097  0.24920356  0.99311694  1
  N  N618  1  0.79919570  0.25864198  0.81645080  1
  N  N619  1  0.78460090  0.04801861  0.90005263  1
  H  H620  1  0.54518018  0.01128668  0.98309356  1
  N  N621  1  0.81507410  0.16143817  0.80632461  1
  C  C622  1  0.73114749  0.26524240  0.94661297  1
  N  N623  1  0.61188310  0.37761840  0.81768431  1
  H  H624  1  0.52947901  0.12507042  0.98244363  1
  N  N625  1  0.85001400  0.39577513  0.89926211  1
  N  N626  1  0.92166214  0.38818468  0.91845878  1
  N  N627  1  0.60334387  0.18291448  0.83712067  1
  N  N628  1  0.64101024  0.07021946  0.78942335  1
  N  N629  1  0.54253624  0.00730523  0.86223340  1
  O  O630  1  0.64986620  0.26542165  0.93697786  1
  O  O631  1  0.79966226  0.27217739  0.91937890  1
  N  N632  1  0.59716129  0.32729927  0.82908210  1
  N  N633  1  0.82245923  0.00568755  0.94149381  1
  C  C634  1  0.59593707  0.43208884  0.80309315  1
  H  H635  1  0.84534980  0.48832883  0.91110247  1
  N  N636  1  0.91081977  0.17990228  0.89505475  1
  N  N637  1  0.94204643  0.04622034  0.82264732  1
  H  H638  1  0.50077730  0.32776753  0.93258168  1
  C  C639  1  0.71150511  0.06634290  0.97150242  1
  Zn  Zn640  1  0.70327777  0.12416598  0.82724446  1
  C  C641  1  0.61032763  0.07901688  0.75671684  1
  Zn  Zn642  1  0.78506785  0.13740884  0.90893411  1
  N  N643  1  0.86550629  0.39945844  0.85131080  1
  Zn  Zn644  1  0.79664038  0.22237318  0.76654936  1
  C  C645  1  0.98993730  0.18660413  0.90980986  1
  H  H646  1  0.51308009  0.04507258  0.85558314  1
  C  C647  1  0.62707100  0.41693810  0.93268433  1
  H  H648  1  0.89346182  0.48632265  0.98513160  1
  C  C649  1  0.76211798  0.25118322  0.98387340  1
  H  H650  1  0.98570876  0.16243320  0.93638246  1
  H  H651  1  0.99289902  0.25751001  0.81363023  1
  O  O652  1  0.50106967  0.15112957  0.90774465  1
  H  H653  1  0.80591657  0.00063507  0.99703632  1
  C  C654  1  0.87479112  0.40278245  0.75149764  1
  O  O655  1  0.63911153  0.82646941  0.12779667  1
  C  C656  1  0.69516745  0.95317985  0.05304549  1
  H  H657  1  0.63859950  0.73809300  0.06234180  1
  H  H658  1  0.73558645  0.67155584  0.20738300  1
  C  C659  1  0.64120325  0.78228320  0.10771368  1
  O  O660  1  0.89103243  0.99666182  0.05139575  1
  O  O661  1  0.53663166  0.64409447  0.23974400  1
  H  H662  1  0.73574424  0.58418594  0.09933709  1
  H  H663  1  0.85006709  0.59778275  0.22691231  1
  H  H664  1  0.73221920  0.53495351  0.01324648  1
  H  H665  1  0.58290632  0.54727617  0.19484731  1
  H  H666  1  0.68525594  0.76315554  0.17726125  1
  C  C667  1  0.98356236  0.52527670  0.02588628  1
  O  O668  1  0.61910716  0.79497351  0.23320926  1
  O  O669  1  0.65939775  0.67645932  0.06550649  1
  H  H670  1  0.76399310  0.97678841  0.05844714  1
  Zn  Zn671  1  0.51522981  0.91989251  0.17112832  1
  C  C672  1  0.60312294  0.89839367  0.00971716  1
  C  C673  1  0.84126575  0.56759458  0.20417433  1
  C  C674  1  0.73640102  0.61932105  0.15395843  1
  C  C675  1  0.68715899  0.92588311  0.01786654  1
  N  N676  1  0.55114303  0.98694387  0.13887148  1
  C  C677  1  0.68951778  0.72275359  0.16002354  1
  C  C678  1  0.61772761  0.95316815  0.07741495  1
  C  C679  1  0.67816358  0.67265780  0.09875459  1
  C  C680  1  0.78175566  0.56640344  0.17187516  1
  C  C681  1  0.66950358  0.72598265  0.12196976  1
  C  C682  1  0.71723903  0.66889035  0.17673422  1
  C  C683  1  0.61772695  0.98635103  0.11395860  1
  C  C684  1  0.71886962  0.62265944  0.11622503  1
  C  C685  1  0.52772853  0.89887896  0.03442284  1
  O  O686  1  0.61339411  0.78327579  0.07261385  1
  C  C687  1  0.53203925  0.92389337  0.06958286  1
  N  N688  1  0.52763513  0.83792279  0.15312158  1
  C  C689  1  0.56786783  0.51350106  0.21709053  1
  N  N690  1  0.77492799  0.51591314  0.15475161  1
  O  O691  1  0.56831201  0.88194484  0.24660710  1
  N  N692  1  0.86301624  0.51348233  0.21163292  1
  C  C693  1  0.56035081  0.82806824  0.24864652  1
  N  N694  1  0.50671533  0.98846464  0.20957819  1
  C  C695  1  0.55044249  0.52363488  0.00275321  1
  N  N696  1  0.85392071  0.52962612  0.30029734  1
  H  H697  1  0.70954483  0.51414407  0.29590676  1
  H  H698  1  0.73306991  0.56670025  0.42004008  1
  N  N699  1  0.84240572  0.59742487  0.34862598  1
  H  H700  1  0.74298715  0.80399178  0.35658189  1
  N  N701  1  0.87299093  0.62633178  0.44334820  1
  C  C702  1  0.58887467  0.59198521  0.42252504  1
  O  O703  1  0.95907811  0.95147163  0.38839963  1
  C  C704  1  0.66972642  0.58839067  0.36498841  1
  O  O705  1  0.59896400  0.98131220  0.39906930  1
  N  N706  1  0.99108430  0.63612544  0.36018583  1
  Zn  Zn707  1  0.96054710  0.56865951  0.32736589  1
  C  C708  1  0.79330224  0.93365067  0.31041027  1
  O  O709  1  0.99822048  0.83592798  0.29542392  1
  C  C710  1  0.78346944  0.84731088  0.35121799  1
  C  C711  1  0.67295538  0.58079351  0.40453570  1
  H  H712  1  0.94488570  0.90961100  0.41523215  1
  C  C713  1  0.75877148  0.57534704  0.34250912  1
  C  C714  1  0.87545210  0.83678140  0.40599232  1
  C  C715  1  0.76724773  0.53742912  0.31009379  1
  H  H716  1  0.97464295  0.73636575  0.44224502  1
  C  C717  1  0.75544619  0.87821150  0.32120405  1
  H  H718  1  0.59622947  0.60751763  0.31473211  1
  C  C719  1  0.89476702  0.93001556  0.36750560  1
  H  H720  1  0.58255657  0.58733961  0.45363252  1
  C  C721  1  0.58769094  0.60451792  0.34499282  1
  O  O722  1  0.93328352  0.86205046  0.42975359  1
  H  H723  1  0.70890062  0.85507843  0.30043693  1
  C  C724  1  0.50556562  0.60719888  0.40152173  1
  C  C725  1  0.85283488  0.87184240  0.37518463  1
  Zn  Zn726  1  0.88195046  0.64785853  0.39009979  1
  O  O727  1  0.84328952  0.78485892  0.41105512  1
  C  C728  1  0.77503142  0.96781220  0.27842241  1
  C  C729  1  0.50177995  0.61127206  0.36278402  1
  N  N730  1  0.91418021  0.59439422  0.46611465  1
  N  N731  1  0.90914078  0.73430653  0.38485204  1
  C  C732  1  0.86046736  0.95581765  0.33505626  1
  C  C733  1  0.99325610  0.56386098  0.47513759  1
  H  H734  1  0.89418175  0.99554672  0.32511931  1
  C  C735  1  0.60522568  0.99861717  0.43142124  1
  H  H736  1  0.96928695  0.68451687  0.46919307  1
  C  C737  1  0.51011259  0.60291945  0.26031451  1
  N  N738  1  0.72615382  0.98624828  0.25025013  1
  C  C739  1  0.53844555  0.53369378  0.25091762  1
  C  C740  1  0.89667286  0.70928956  0.74883809  1
  C  C741  1  0.96511683  0.50963210  0.68206808  1
  C  C742  1  0.79101801  0.51618857  0.68403520  1
  O  O743  1  0.80814754  0.60218694  0.62592506  1
  C  C744  1  0.95583894  0.67096963  0.72936971  1
  O  O745  1  0.80138242  0.85852982  0.69014973  1
  C  C746  1  0.93244834  0.51686360  0.53222107  1
  H  H747  1  0.80744280  0.78857871  0.73933355  1
  C  C748  1  0.85714736  0.75423379  0.72772726  1
  C  C749  1  0.87987732  0.76071896  0.69135053  1
  C  C750  1  0.87953493  0.57544164  0.63546320  1
  O  O751  1  0.85340997  0.82391510  0.63755790  1
  C  C752  1  0.84168667  0.81938456  0.67080778  1
  H  H753  1  0.86190846  0.53473302  0.52775181  1
  C  C754  1  0.87795631  0.53125479  0.66788543  1
  H  H755  1  0.72775480  0.53286519  0.67045592  1
  H  H756  1  0.95566047  0.73323572  0.64287956  1
  C  C757  1  0.93937675  0.72308274  0.67176799  1
  O  O758  1  0.95879403  0.58357318  0.62330875  1
  O  O759  1  0.57903013  0.50933623  0.61843535  1
  C  C760  1  0.97568146  0.67527199  0.69201778  1
  C  C761  1  0.52316116  0.67159079  0.73101123  1
  N  N762  1  0.52431512  0.50286531  0.52108320  1
  H  H763  1  0.54862441  0.51388246  0.54659193  1
  C  C764  1  0.75122000  0.71586518  0.92425224  1
  C  C765  1  0.91384889  0.50950843  0.90236981  1
  O  O766  1  0.64159323  0.88962311  0.94241825  1
  H  H767  1  0.53994784  0.57062965  0.85609736  1
  C  C768  1  0.67313284  0.63467654  0.89349460  1
  H  H769  1  0.86905029  0.70238273  0.85122215  1
  H  H770  1  0.61990025  0.77939120  0.76494487  1
  C  C771  1  0.75307847  0.65757149  0.91190403  1
  C  C772  1  0.83351155  0.74571990  0.94672422  1
  H  H773  1  0.88249015  0.70366628  0.77902074  1
  N  N774  1  0.61466346  0.86908188  0.79037015  1
  C  C775  1  0.97746376  0.61548106  0.75172021  1
  C  C776  1  0.68015730  0.70086257  0.78990806  1
  O  O777  1  0.82349250  0.79895696  0.95339844  1
  N  N778  1  0.94883884  0.53637285  0.79068915  1
  H  H779  1  0.85862789  0.80756815  0.83706791  1
  C  C780  1  0.91476182  0.57036513  0.76594682  1
  C  C781  1  0.95396326  0.51433217  0.98993618  1
  C  C782  1  0.73913202  0.80282812  0.79925608  1
  C  C783  1  0.59342884  0.73135512  0.89967615  1
  O  O784  1  0.82957352  0.60411253  0.84034051  1
  H  H785  1  0.81458466  0.62817942  0.91269817  1
  O  O786  1  0.52929093  0.83579555  0.96492579  1
  C  C787  1  0.59396474  0.86924296  0.96955158  1
  C  C788  1  0.70758721  0.86501017  0.79909585  1
  C  C789  1  0.67716355  0.76160017  0.78209362  1
  C  C790  1  0.81829072  0.71946153  0.83026693  1
  H  H791  1  0.62686072  0.67049183  0.77721611  1
  N  N792  1  0.57192190  0.92059421  0.79178509  1
  H  H793  1  0.53056764  0.75781953  0.89749659  1
  H  H794  1  0.66670280  0.79538346  0.93355240  1
  H  H795  1  0.74663278  0.92804847  0.99951523  1
  O  O796  1  0.90446853  0.71804747  0.95330763  1
  N  N797  1  0.74963499  0.95645211  0.82404111  1
  C  C798  1  0.51202541  0.66188647  0.85864975  1
  C  C799  1  0.77355595  0.90714564  0.81282859  1
  C  C800  1  0.59784379  0.67393194  0.88358262  1
  H  H801  1  0.55233938  0.95482286  0.91986954  1
  H  H802  1  0.84941914  0.89740429  0.81949927  1
  C  C803  1  0.76338593  0.61551860  0.82006039  1
  C  C804  1  0.75396777  0.68046695  0.81236968  1
  H  H805  1  0.67721419  0.59234451  0.87968586  1
  C  C806  1  0.67420493  0.75374510  0.91874208  1
  C  C807  1  0.81037903  0.77932286  0.82331342  1
  O  O808  1  0.57857699  0.51042450  0.88562470  1
  O  O809  1  0.70110298  0.57782353  0.80790600  1
  H  H810  1  0.54358649  0.58866125  0.97293537  1
  N  N811  1  0.94185320  0.50904384  0.86859805  1
  O  O812  1  0.94709139  0.96175142  0.89389585  1
  H  H813  1  0.83631012  0.55910223  0.75741531  1
  C  C814  1  0.98507755  0.53845701  0.92250275  1
  H  H815  1  0.55701966  0.52312685  0.75316376  1
  N  N816  1  0.50511134  0.60620694  0.84458177  1
  C  C817  1  0.99648681  0.54823712  0.96252820  1
  O  O818  1  0.59758723  0.57166308  0.98482040  1
  H  H819  1  0.87797183  0.98124094  0.93190530  1
  Zn  Zn820  1  0.61806663  0.99587393  0.81495325  1
  H  H821  1  0.98972671  0.76736954  0.90520588  1
  N  N822  1  0.51634992  0.99053829  0.91202885  1
  N  N823  1  0.73307184  0.50250351  0.81190820  1
