# generated using pymatgen
data_CuH16C28(NO2)2
_symmetry_space_group_name_H-M   'P 1'
_cell_length_a   11.20716394
_cell_length_b   31.12914605
_cell_length_c   41.08422223
_cell_angle_alpha   90.00000000
_cell_angle_beta   90.00000000
_cell_angle_gamma   90.00000000
_symmetry_Int_Tables_number   1
_chemical_formula_structural   CuH16C28(NO2)2
_chemical_formula_sum   'Cu24 H384 C672 N48 O96'
_cell_volume   14333.02972415
_cell_formula_units_Z   24
loop_
 _symmetry_equiv_pos_site_id
 _symmetry_equiv_pos_as_xyz
  1  'x, y, z'
loop_
 _atom_site_type_symbol
 _atom_site_label
 _atom_site_symmetry_multiplicity
 _atom_site_fract_x
 _atom_site_fract_y
 _atom_site_fract_z
 _atom_site_occupancy
  C  C0  1  0.21739583  0.04952894  0.02829101  1
  H  H1  1  0.30012183  0.06306427  0.03854846  1
  N  N2  1  0.28086416  0.13379572  0.00981526  1
  C  C3  1  0.41081148  0.19416739  0.01904674  1
  O  O4  1  0.05809889  0.23112246  0.15452771  1
  H  H5  1  0.32734142  0.21207670  0.12463937  1
  C  C6  1  0.17296578  0.00906921  0.03733058  1
  C  C7  1  0.37510238  0.22050338  0.14720172  1
  H  H8  1  0.33171865  0.16616663  0.06127870  1
  Cu  Cu9  1  0.12433950  0.24080055  0.19797420  1
  C  C10  1  0.40389096  0.18583557  0.05257386  1
  C  C11  1  0.49781894  0.22368602  0.00723373  1
  C  C12  1  0.49546134  0.19819495  0.07377601  1
  C  C13  1  0.44936385  0.19318620  0.16443208  1
  C  C14  1  0.16275600  0.07085805  0.00187780  1
  H  H15  1  0.47126250  0.15986134  0.15409802  1
  C  C16  1  0.02076090  0.21005391  0.02030142  1
  H  H17  1  0.49546806  0.19000626  0.10162152  1
  H  H18  1  0.01518896  0.18306167  0.03837404  1
  C  C19  1  0.49788265  0.24800663  0.20476878  1
  O  O20  1  0.18328925  0.24739431  0.23963324  1
  H  H21  1  0.17726154  0.24585897  0.04084321  1
  C  C22  1  0.10372449  0.24371424  0.02281076  1
  O  O23  1  0.49098024  0.05663278  0.08577524  1
  H  H24  1  0.49903230  0.31497663  0.09019014  1
  N  N25  1  0.03588688  0.39174095  0.06561979  1
  H  H26  1  0.11798989  0.48296315  0.15292403  1
  H  H27  1  0.36720672  0.44664776  0.01460809  1
  H  H28  1  0.00562524  0.35660629  0.01129934  1
  H  H29  1  0.27913919  0.26375573  0.09587591  1
  O  O30  1  0.28798250  0.30121015  0.02331631  1
  C  C31  1  0.27031002  0.33775041  0.15686246  1
  C  C32  1  0.01144838  0.46645802  0.09913470  1
  C  C33  1  0.21365941  0.37234330  0.14159949  1
  C  C34  1  0.34733964  0.47156119  0.09427766  1
  C  C35  1  0.39202253  0.44962861  0.06542815  1
  H  H36  1  0.14317703  0.31956309  0.06997929  1
  C  C37  1  0.29361560  0.29766074  0.14285495  1
  C  C38  1  0.36399933  0.26319905  0.15956524  1
  C  C39  1  0.24641972  0.49241216  0.03463244  1
  C  C40  1  0.46511691  0.47017289  0.18133802  1
  C  C41  1  0.40697890  0.48597736  0.15414736  1
  C  C42  1  0.34548702  0.46298323  0.03610384  1
  H  H43  1  0.42203447  0.33638537  0.03598687  1
  C  C44  1  0.42982810  0.27697696  0.18773616  1
  C  C45  1  0.09213825  0.39981777  0.09470515  1
  C  C46  1  0.25518559  0.29220024  0.10918012  1
  C  C47  1  0.16876544  0.36561672  0.10935143  1
  H  H48  1  0.42162492  0.31377855  0.19216383  1
  N  N49  1  0.07874251  0.43525335  0.11217239  1
  H  H50  1  0.20703287  0.40258882  0.15493920  1
  C  C51  1  0.38740863  0.45733753  0.12679638  1
  C  C52  1  0.18257760  0.32367625  0.09411295  1
  H  H53  1  0.42652305  0.39590492  0.10724860  1
  H  H54  1  0.46226957  0.42361558  0.06750164  1
  C  C55  1  0.43473617  0.41524550  0.12905703  1
  H  H56  1  0.30502902  0.34039924  0.18250684  1
  H  H57  1  0.48328317  0.49133565  0.20177702  1
  H  H58  1  0.19661409  0.13244990  0.34720509  1
  C  C59  1  0.22934768  0.14646103  0.32467788  1
  C  C60  1  0.15542412  0.17312031  0.30774013  1
  C  C61  1  0.20392113  0.19621209  0.28095874  1
  H  H62  1  0.06108509  0.17881084  0.31448986  1
  C  C63  1  0.35336259  0.13841765  0.31526786  1
  C  C64  1  0.32251486  0.18789916  0.27227542  1
  C  C65  1  0.42556081  0.11387958  0.34074383  1
  C  C66  1  0.39576076  0.15661128  0.28622885  1
  C  C67  1  0.13672034  0.22948042  0.26430606  1
  H  H68  1  0.08468030  0.10085271  0.43603256  1
  H  H69  1  0.10281531  0.09441444  0.28812699  1
  O  O70  1  0.05877178  0.13330381  0.38371430  1
  H  H71  1  0.10261153  0.02741859  0.32778072  1
  H  H72  1  0.45744747  0.14668837  0.47739609  1
  H  H73  1  0.01491725  0.07705450  0.49198470  1
  O  O74  1  0.03002714  0.23819626  0.27377703  1
  C  C75  1  0.46247723  0.06285441  0.48547173  1
  C  C76  1  0.02547445  0.04808758  0.32213498  1
  N  N77  1  0.47166930  0.07991325  0.45557160  1
  N  N78  1  0.48213535  0.02248986  0.49122634  1
  H  H79  1  0.42284971  0.17519191  0.36763628  1
  C  C80  1  0.44131837  0.14078609  0.36872790  1
  O  O81  1  0.01106160  0.14552669  0.25399002  1
  H  H82  1  0.49065733  0.15375585  0.27720370  1
  H  H83  1  0.43546738  0.05008649  0.31794979  1
  C  C84  1  0.45202800  0.06842417  0.33892196  1
  C  C85  1  0.49886961  0.04809264  0.36807444  1
  H  H86  1  0.28110821  0.00456796  0.47842631  1
  C  C87  1  0.49801529  0.05343347  0.43179226  1
  C  C88  1  0.49141360  0.07306548  0.39750330  1
  H  H89  1  0.48448712  0.13867040  0.42016268  1
  C  C90  1  0.48086592  0.11899822  0.39703803  1
  C  C91  1  0.02583800  0.08303908  0.30180332  1
  H  H92  1  0.36311746  0.20499005  0.25126332  1
  H  H93  1  0.42944234  0.48460562  0.44885475  1
  O  O94  1  0.14741356  0.35501419  0.33855624  1
  H  H95  1  0.06159039  0.35736171  0.45419106  1
  H  H96  1  0.39389807  0.39788200  0.29623113  1
  H  H97  1  0.02873213  0.40354228  0.49091354  1
  C  C98  1  0.40482052  0.42659905  0.35971121  1
  O  O99  1  0.04877402  0.29680259  0.32363015  1
  H  H100  1  0.30974624  0.44438612  0.31490417  1
  C  C101  1  0.29654400  0.43767760  0.41020674  1
  H  H102  1  0.37466873  0.34532200  0.43503893  1
  C  C103  1  0.20466189  0.45748403  0.39163384  1
  C  C104  1  0.02946539  0.33932643  0.47420108  1
  C  C105  1  0.47908736  0.37998345  0.47321357  1
  C  C106  1  0.30657336  0.44559238  0.34124492  1
  H  H107  1  0.15151410  0.48510197  0.34204518  1
  C  C108  1  0.48210647  0.39186376  0.30734899  1
  N  N109  1  0.06984785  0.45593604  0.43626376  1
  C  C110  1  0.37381438  0.39083225  0.49464516  1
  C  C111  1  0.39654936  0.42129137  0.39430445  1
  C  C112  1  0.21335258  0.46456646  0.35696668  1
  C  C113  1  0.06499508  0.33014338  0.34297837  1
  H  H114  1  0.05175805  0.40195138  0.38704736  1
  H  H115  1  0.28772738  0.43646517  0.43642697  1
  C  C116  1  0.46304901  0.35534418  0.44332716  1
  N  N117  1  0.27136125  0.36940306  0.48720509  1
  C  C118  1  0.09311625  0.47547581  0.40848418  1
  H  H119  1  0.47421375  0.40807549  0.40606228  1
  C  C120  1  0.49963439  0.40525755  0.34032250  1
  C  C121  1  0.28288601  0.09920877  0.66800469  1
  C  C122  1  0.32693049  0.04316425  0.62591914  1
  C  C123  1  0.39566150  0.10987046  0.56756875  1
  H  H124  1  0.37790522  0.09961862  0.59282937  1
  C  C125  1  0.39743673  0.15454585  0.55902571  1
  C  C126  1  0.31134226  0.17206223  0.61452309  1
  C  C127  1  0.27712379  0.20049806  0.63862496  1
  H  H128  1  0.29358667  0.13923589  0.61734047  1
  H  H129  1  0.23082865  0.18707719  0.66131411  1
  C  C130  1  0.37379969  0.18546050  0.58585668  1
  H  H131  1  0.31258383  0.11912393  0.68908830  1
  C  C132  1  0.35843102  0.06783133  0.65419279  1
  H  H133  1  0.17215105  0.14311162  0.71756788  1
  C  C134  1  0.21459431  0.04963838  0.61147699  1
  H  H135  1  0.15425883  0.20153517  0.59327095  1
  H  H136  1  0.43458407  0.04393819  0.55043446  1
  C  C137  1  0.16753127  0.10519472  0.65267663  1
  C  C138  1  0.13802203  0.08051949  0.62495979  1
  C  C139  1  0.10585616  0.15446439  0.69856866  1
  H  H140  1  0.18002305  0.17043117  0.54318986  1
  C  C141  1  0.15406723  0.10206626  0.53880558  1
  N  N142  1  0.12378575  0.00795060  0.51146357  1
  H  H143  1  0.24170454  0.09580023  0.52756380  1
  C  C144  1  0.41869560  0.07811106  0.54455586  1
  H  H145  1  0.17927175  0.03037321  0.59172099  1
  C  C146  1  0.11743338  0.14454269  0.54675994  1
  C  C147  1  0.41493395  0.01166958  0.60948468  1
  C  C148  1  0.41893428  0.17080221  0.52659856  1
  C  C149  1  0.08441488  0.13808202  0.66655334  1
  C  C150  1  0.08031229  0.02228275  0.53834521  1
  C  C151  1  0.43468300  0.09332298  0.51202267  1
  H  H152  1  0.40742745  0.20573241  0.52095455  1
  H  H153  1  0.03003331  0.20677207  0.73099212  1
  H  H154  1  0.05945516  0.08830134  0.61103932  1
  C  C155  1  0.06936669  0.06949125  0.54656400  1
  C  C156  1  0.40699779  0.23071782  0.58429821  1
  C  C157  1  0.06478359  0.21628771  0.59326073  1
  O  O158  1  0.35333881  0.19102583  0.73887600  1
  H  H159  1  0.44097109  0.06109440  0.66585270  1
  H  H160  1  0.45740295  0.24275462  0.56420496  1
  C  C161  1  0.30400051  0.24371392  0.63462991  1
  Cu  Cu162  1  0.31878862  0.24616850  0.72577865  1
  C  C163  1  0.03105061  0.18849394  0.70654525  1
  C  C164  1  0.44137089  0.13881849  0.50344964  1
  Cu  Cu165  1  0.35988248  0.34162421  0.68401981  1
  C  C166  1  0.47967353  0.49159427  0.71534886  1
  C  C167  1  0.25618617  0.27074259  0.66139895  1
  N  N168  1  0.39943182  0.41167900  0.52163128  1
  C  C169  1  0.25983717  0.40867278  0.60265798  1
  H  H170  1  0.04168636  0.47663665  0.67728385  1
  C  C171  1  0.36041303  0.48733855  0.66758854  1
  O  O172  1  0.22985398  0.25839628  0.68930413  1
  O  O173  1  0.46602777  0.37392870  0.65715280  1
  C  C174  1  0.36796436  0.25944501  0.60744159  1
  C  C175  1  0.45502229  0.46976916  0.68725621  1
  C  C176  1  0.38343044  0.32774977  0.74893354  1
  C  C177  1  0.04200474  0.25404972  0.61025141  1
  C  C178  1  0.19036437  0.36878158  0.50943297  1
  C  C179  1  0.37713943  0.48819840  0.60752675  1
  C  C180  1  0.08200965  0.33971130  0.50545098  1
  C  C181  1  0.26572026  0.42780174  0.63333930  1
  H  H182  1  0.21864117  0.37730156  0.59988835  1
  C  C183  1  0.32817152  0.46685734  0.63543079  1
  O  O184  1  0.38920919  0.28682216  0.74992280  1
  C  C185  1  0.01718739  0.49165380  0.62507943  1
  H  H186  1  0.46652009  0.40973995  0.60613939  1
  C  C187  1  0.04421650  0.31305517  0.53223011  1
  C  C188  1  0.38046427  0.46695448  0.57803025  1
  H  H189  1  0.09748643  0.30993339  0.55551856  1
  C  C190  1  0.30728236  0.40735624  0.54111793  1
  H  H191  1  0.10898604  0.27421891  0.62150401  1
  O  O192  1  0.40747951  0.34785368  0.72334716  1
  C  C193  1  0.31497745  0.42828547  0.57503355  1
  O  O194  1  0.26106187  0.31083948  0.65713492  1
  N  N195  1  0.20392079  0.38525218  0.53812082  1
  H  H196  1  0.21530206  0.41224202  0.65408430  1
  H  H197  1  0.42101341  0.48207401  0.55667586  1
  O  O198  1  0.06477688  0.33554167  0.72982629  1
  H  H199  1  0.11263232  0.49023545  0.61828843  1
  H  H200  1  0.38426647  0.29355124  0.60698874  1
  H  H201  1  0.10930266  0.46349996  0.56966555  1
  H  H202  1  0.23962211  0.49666019  0.52709367  1
  C  C203  1  0.07850839  0.49513825  0.55767293  1
  C  C204  1  0.16155160  0.19106307  0.92562829  1
  C  C205  1  0.10881387  0.16614702  0.90017290  1
  C  C206  1  0.07969727  0.18705347  0.87117021  1
  H  H207  1  0.24440081  0.15643211  0.82652336  1
  H  H208  1  0.08679891  0.13103637  0.90557098  1
  C  C209  1  0.10421635  0.07245747  0.86962922  1
  H  H210  1  0.18580866  0.08283789  0.85438753  1
  N  N211  1  0.29302332  0.07962224  0.91119194  1
  C  C212  1  0.30918675  0.18166966  0.82608805  1
  C  C213  1  0.11445971  0.04937782  0.89973365  1
  C  C214  1  0.23290326  0.04550967  0.91907879  1
  C  C215  1  0.33810036  0.20684290  0.85307491  1
  H  H216  1  0.29978868  0.20203374  0.87732979  1
  C  C217  1  0.20981293  0.16721054  0.95567601  1
  C  C218  1  0.35681102  0.19395700  0.79613328  1
  H  H219  1  0.12862091  0.21055739  0.80376258  1
  N  N220  1  0.15953162  0.13054379  0.96400676  1
  C  C221  1  0.34546993  0.01658040  0.95612599  1
  O  O222  1  0.33859131  0.08618670  0.84004568  1
  C  C223  1  0.38030032  0.08024067  0.93323761  1
  N  N224  1  0.41455246  0.05061060  0.95464363  1
  N  N225  1  0.28856193  0.19200290  0.97054070  1
  O  O226  1  0.38865179  0.08650562  0.78788364  1
  C  C227  1  0.41500283  0.08524564  0.81892981  1
  H  H228  1  0.37844804  0.23685638  0.91582131  1
  O  O229  1  0.22657660  0.14974292  0.76691818  1
  C  C230  1  0.30863710  0.17751205  0.76560111  1
  Cu  Cu231  1  0.22175414  0.08995541  0.77190508  1
  O  O232  1  0.20856481  0.02941786  0.77545767  1
  H  H233  1  0.03001626  0.16899559  0.85293447  1
  C  C234  1  0.42058828  0.24237102  0.84880300  1
  N  N235  1  0.25124725  0.01133285  0.93755264  1
  H  H236  1  0.40211329  0.13564896  0.88097313  1
  C  C237  1  0.17845202  0.23637572  0.92305666  1
  H  H238  1  0.45818009  0.06546948  0.87795187  1
  H  H239  1  0.01965680  0.01162649  0.93742161  1
  O  O240  1  0.04039389  0.00833342  0.79866218  1
  C  C241  1  0.14788563  0.01052399  0.79968346  1
  C  C242  1  0.46100120  0.14404885  0.90104935  1
  C  C243  1  0.46375989  0.11803860  0.93036666  1
  C  C244  1  0.19954946  0.11533100  0.99204935  1
  C  C245  1  0.05355979  0.05527169  0.98633590  1
  C  C246  1  0.08942757  0.23264347  0.86721403  1
  C  C247  1  0.01633111  0.03068641  0.91500699  1
  C  C248  1  0.45540214  0.22226110  0.79154108  1
  C  C249  1  0.49229091  0.24311532  0.81880930  1
  C  C250  1  0.10175026  0.24531042  0.80574927  1
  H  H251  1  0.00896036  0.07432295  0.96690172  1
  H  H252  1  0.38430512  0.01201097  0.79687148  1
  C  C253  1  0.31464255  0.17183235  0.99776069  1
  C  C254  1  0.00733226  0.01703580  0.99811292  1
  H  H255  1  0.05311522  0.29622573  0.95063243  1
  C  C256  1  0.03662336  0.27200967  0.96944602  1
  C  C257  1  0.21673488  0.30469353  0.99996748  1
  C  C258  1  0.10640822  0.27181730  0.99665745  1
  H  H259  1  0.34743760  0.45576598  0.80490912  1
  N  N260  1  0.49617535  0.36956953  0.97764197  1
  C  C261  1  0.21261822  0.46613233  0.86335170  1
  C  C262  1  0.44650276  0.27700968  0.87280168  1
  H  H263  1  0.29991042  0.29552770  0.80806147  1
  C  C264  1  0.07837230  0.26181767  0.83770604  1
  C  C265  1  0.03822382  0.30539451  0.84277457  1
  C  C266  1  0.16200425  0.49081375  0.95185851  1
  H  H267  1  0.10443538  0.26687189  0.75461892  1
  C  C268  1  0.49580928  0.37563162  0.94565541  1
  H  H269  1  0.21906830  0.25520881  0.94293327  1
  C  C270  1  0.24434467  0.39813513  0.89463079  1
  H  H271  1  0.37850524  0.41835844  0.75625678  1
  C  C272  1  0.18653828  0.46315087  0.92249263  1
  O  O273  1  0.16764429  0.48321593  0.76995466  1
  C  C274  1  0.24615279  0.42138987  0.86361497  1
  N  N275  1  0.22419091  0.47799933  0.97739538  1
  C  C276  1  0.03205893  0.33357700  0.81658581  1
  C  C277  1  0.33320005  0.42112790  0.80547790  1
  H  H278  1  0.38293762  0.29361338  0.95400186  1
  C  C279  1  0.21596827  0.41763529  0.92419306  1
  C  C280  1  0.35304145  0.35342878  0.77806282  1
  C  C281  1  0.31801334  0.33238053  0.80716664  1
  Cu  Cu282  1  0.08522221  0.43527629  0.76318094  1
  C  C283  1  0.03358021  0.34777861  0.75736108  1
  C  C284  1  0.47022862  0.34082237  0.92130039  1
  C  C285  1  0.41447527  0.30092668  0.92891703  1
  C  C286  1  0.28908279  0.40072778  0.83398159  1
  H  H287  1  0.25441529  0.33580886  0.85598961  1
  C  C288  1  0.28615100  0.35414380  0.83461900  1
  H  H289  1  0.21535657  0.39885981  0.94727087  1
  H  H290  1  0.26795862  0.36369569  0.89417588  1
  C  C291  1  0.18402119  0.48674108  0.89227940  1
  C  C292  1  0.14751861  0.25614452  0.89394296  1
  O  O293  1  0.22159819  0.33308986  0.98017361  1
  C  C294  1  0.08572850  0.27456558  0.78037961  1
  C  C295  1  0.05190287  0.31752324  0.78521978  1
  H  H296  1  0.16323468  0.29138007  0.89216764  1
  C  C297  1  0.35820733  0.39831030  0.77793322  1
  H  H298  1  0.20668883  0.48355443  0.84049244  1
  C  C299  1  0.40967290  0.26818986  0.90612857  1
  H  H300  1  0.00852139  0.31663821  0.86687208  1
  C  C301  1  0.47920661  0.31962525  0.86341436  1
  H  H302  1  0.48391561  0.32866607  0.83676668  1
  N  N303  1  0.28100548  0.61716141  0.06054949  1
  H  H304  1  0.16664389  0.66154958  0.11073841  1
  C  C305  1  0.20927689  0.63912167  0.04202842  1
  C  C306  1  0.13754849  0.67421075  0.20219737  1
  C  C307  1  0.12551377  0.64127083  0.17961778  1
  H  H308  1  0.20377899  0.62901673  0.16676259  1
  H  H309  1  0.13159020  0.53773633  0.06223618  1
  C  C310  1  0.03004722  0.69076411  0.21443023  1
  C  C311  1  0.36533592  0.59617188  0.04281977  1
  C  C312  1  0.10430006  0.65870146  0.05993621  1
  C  C313  1  0.07145040  0.55062352  0.16247432  1
  H  H314  1  0.11640092  0.55081824  0.18671360  1
  C  C315  1  0.21115370  0.51508908  0.06286237  1
  H  H316  1  0.22910925  0.68775724  0.20651245  1
  C  C317  1  0.01381145  0.62356141  0.16976552  1
  C  C318  1  0.09368749  0.66718579  0.09387845  1
  H  H319  1  0.23523445  0.52546849  0.11428487  1
  O  O320  1  0.33485234  0.71989507  0.12737243  1
  N  N321  1  0.21291024  0.64052560  0.01002403  1
  N  N322  1  0.37210512  0.59098882  0.01137222  1
  C  C323  1  0.45749040  0.57526634  0.06406141  1
  H  H324  1  0.38843909  0.67405613  0.01188902  1
  C  C325  1  0.38005305  0.72635619  0.10175595  1
  O  O326  1  0.28001465  0.73943728  0.00404886  1
  C  C327  1  0.04927622  0.73017025  0.23479779  1
  O  O328  1  0.13449267  0.54595760  0.24565291  1
  C  C329  1  0.07536937  0.51267306  0.14431782  1
  H  H330  1  0.37349433  0.52015671  0.15592266  1
  C  C331  1  0.00527205  0.58467471  0.14749835  1
  H  H332  1  0.01491973  0.65187131  0.01187350  1
  H  H333  1  0.46676886  0.62960346  0.09684730  1
  C  C334  1  0.49316444  0.59464239  0.09389898  1
  C  C335  1  0.00782503  0.66303672  0.03643710  1
  C  C336  1  0.26448732  0.50631613  0.09322796  1
  C  C337  1  0.00667527  0.51016712  0.11479660  1
  Cu  Cu338  1  0.22024117  0.74497799  0.04463424  1
  H  H339  1  0.48189658  0.52204451  0.02943475  1
  H  H340  1  0.14087530  0.62630233  0.24958247  1
  N  N341  1  0.10806491  0.53370024  0.00426572  1
  C  C342  1  0.18464829  0.50038211  0.00202470  1
  C  C343  1  0.48294152  0.68386815  0.00394946  1
  H  H344  1  0.22041769  0.98938803  0.05640501  1
  H  H345  1  0.49138339  0.95693806  0.09369807  1
  O  O346  1  0.33043213  0.75033418  0.07856332  1
  C  C347  1  0.46443476  0.99154524  0.00528006  1
  C  C348  1  0.31109454  0.84879639  0.10283104  1
  H  H349  1  0.49404705  0.83138244  0.20331337  1
  H  H350  1  0.24177572  0.89314829  0.01825250  1
  C  C351  1  0.33470067  0.86273396  0.07227672  1
  O  O352  1  0.15510067  0.75058433  0.23799609  1
  Cu  Cu353  1  0.20040201  0.79637418  0.20877138  1
  H  H354  1  0.09596016  0.94829382  0.18921911  1
  C  C355  1  0.03022428  0.91317862  0.00756683  1
  C  C356  1  0.05095909  0.93620920  0.06541486  1
  O  O357  1  0.07073650  0.83315299  0.21671674  1
  H  H358  1  0.04745422  0.96363938  0.08205529  1
  C  C359  1  0.01824789  0.93287862  0.17722718  1
  H  H360  1  0.43971689  0.93206913  0.14816889  1
  C  C361  1  0.40297990  0.92589449  0.03626914  1
  C  C362  1  0.05878502  0.86164214  0.05078956  1
  Cu  Cu363  1  0.31840265  0.87356395  0.22892849  1
  C  C364  1  0.06957541  0.99154879  0.02172458  1
  C  C365  1  0.30865800  0.91889880  0.01315317  1
  C  C366  1  0.07941080  0.81429721  0.06132340  1
  O  O367  1  0.15964540  0.89574606  0.22351277  1
  O  O368  1  0.26780719  0.82619585  0.16978772  1
  C  C369  1  0.34326873  0.87431860  0.13040822  1
  O  O370  1  0.10948032  0.78607874  0.03875771  1
  C  C371  1  0.39235726  0.90322937  0.06794906  1
  O  O372  1  0.35988514  0.88539215  0.18631073  1
  C  C373  1  0.05180648  0.89353981  0.07473060  1
  C  C374  1  0.31909794  0.86107642  0.16323801  1
  H  H375  1  0.26918719  0.81632194  0.10311161  1
  C  C376  1  0.47885960  0.96301642  0.03189089  1
  C  C377  1  0.04818332  0.86986109  0.01721019  1
  C  C378  1  0.07437906  0.87335187  0.21234340  1
  C  C379  1  0.41162880  0.91260200  0.12626490  1
  C  C380  1  0.43689466  0.92741980  0.09509303  1
  H  H381  1  0.31002846  0.84495773  0.04984914  1
  C  C382  1  0.03752669  0.94633046  0.03130682  1
  O  O383  1  0.06242268  0.80500566  0.08862453  1
  H  H384  1  0.06539837  0.88354911  0.10100900  1
  C  C385  1  0.33761904  0.61050577  0.42719411  1
  C  C386  1  0.31338577  0.61152880  0.46367247  1
  C  C387  1  0.24566241  0.60534307  0.40421125  1
  H  H388  1  0.15140472  0.60439598  0.41045570  1
  C  C389  1  0.28824937  0.60860558  0.37171172  1
  H  H390  1  0.22741916  0.60644463  0.35009747  1
  O  O391  1  0.32302947  0.70431716  0.43070977  1
  N  N392  1  0.37033336  0.64211006  0.47978409  1
  N  N393  1  0.22857426  0.58241597  0.47223683  1
  C  C394  1  0.38880142  0.58089177  0.30771983  1
  H  H395  1  0.31181178  0.56397326  0.31818930  1
  C  C396  1  0.08713140  0.58542257  0.29282645  1
  C  C397  1  0.10088674  0.54369692  0.27277284  1
  H  H398  1  0.09148089  0.69209544  0.28227308  1
  C  C399  1  0.09167159  0.66138465  0.29469288  1
  C  C400  1  0.11203592  0.62393424  0.27683665  1
  H  H401  1  0.08198673  0.66107098  0.39443834  1
  C  C402  1  0.05632586  0.65818099  0.32837233  1
  C  C403  1  0.05803149  0.69153608  0.38397369  1
  C  C404  1  0.04301757  0.69712455  0.34952802  1
  C  C405  1  0.04280313  0.61669757  0.34357209  1
  H  H406  1  0.04424861  0.72492336  0.43059099  1
  C  C407  1  0.03174871  0.72591755  0.40442343  1
  C  C408  1  0.40946694  0.61326470  0.36345339  1
  Cu  Cu409  1  0.46632391  0.68185698  0.44900633  1
  C  C410  1  0.46546522  0.60918279  0.41898813  1
  C  C411  1  0.05590375  0.57967267  0.32516688  1
  C  C412  1  0.02149482  0.73866399  0.33557534  1
  N  N413  1  0.03894257  0.50843678  0.39413469  1
  H  H414  1  0.28954604  0.70198051  0.49294743  1
  C  C415  1  0.45149388  0.61129452  0.32832883  1
  H  H416  1  0.46379940  0.52728041  0.38009871  1
  C  C417  1  0.44910838  0.56655487  0.27973168  1
  C  C418  1  0.48905731  0.52460392  0.48827185  1
  H  H419  1  0.01284680  0.74125372  0.30943481  1
  H  H420  1  0.40716489  0.54024060  0.26567473  1
  H  H421  1  0.01457997  0.61175350  0.36731115  1
  C  C422  1  0.28838536  0.74197298  0.43267970  1
  C  C423  1  0.27771415  0.73751991  0.49262516  1
  C  C424  1  0.49952971  0.50472738  0.45707298  1
  H  H425  1  0.05106981  0.54695361  0.33419254  1
  O  O426  1  0.06385380  0.50798384  0.28505048  1
  H  H427  1  0.48839528  0.71933047  0.48916246  1
  C  C428  1  0.49964037  0.88346040  0.49146546  1
  C  C429  1  0.29284564  0.97288006  0.43181117  1
  C  C430  1  0.49450539  0.92839751  0.49266772  1
  O  O431  1  0.49181548  0.87061421  0.28601384  1
  H  H432  1  0.13138145  0.87895896  0.41383769  1
  C  C433  1  0.22382867  0.90847245  0.32691411  1
  H  H434  1  0.15332148  0.89412706  0.31140062  1
  C  C435  1  0.23932693  0.93770406  0.41417896  1
  C  C436  1  0.10711460  0.91546871  0.45848510  1
  O  O437  1  0.30549645  0.86503911  0.27130192  1
  C  C438  1  0.15548786  0.90764964  0.42722527  1
  C  C439  1  0.15335860  0.95246724  0.47491110  1
  H  H440  1  0.04826304  0.89057510  0.47002109  1
  H  H441  1  0.36328599  0.99498733  0.42413710  1
  O  O442  1  0.27878186  0.76529390  0.40738191  1
  H  H443  1  0.08848945  0.93512685  0.35978499  1
  C  C444  1  0.27751195  0.93448509  0.37929617  1
  C  C445  1  0.18378209  0.93071851  0.35469576  1
  H  H446  1  0.18645808  0.81952090  0.44151944  1
  C  C447  1  0.43578930  0.91073548  0.34480436  1
  C  C448  1  0.38396135  0.87650639  0.29209456  1
  C  C449  1  0.22991130  0.82823163  0.49401486  1
  H  H450  1  0.20376414  0.86250119  0.49613232  1
  C  C451  1  0.26223508  0.76228807  0.46429117  1
  C  C452  1  0.34652374  0.89875989  0.32211848  1
  C  C453  1  0.40426873  0.92763755  0.37442288  1
  H  H454  1  0.46710977  0.93203514  0.39632752  1
  C  C455  1  0.24822926  0.97820622  0.46311643  1
  Cu  Cu456  1  0.40623340  0.79876175  0.39477287  1
  C  C457  1  0.22193919  0.80631323  0.46512753  1
  H  H458  1  0.42107261  0.79392689  0.48930512  1
  C  C459  1  0.34997352  0.68614083  0.59401891  1
  C  C460  1  0.38293042  0.66403333  0.53843626  1
  C  C461  1  0.30723383  0.66847777  0.56557617  1
  C  C462  1  0.29362400  0.58127754  0.59584610  1
  H  H463  1  0.35387257  0.64557661  0.67615607  1
  C  C464  1  0.33919198  0.62702063  0.65369014  1
  C  C465  1  0.22088009  0.61338312  0.64605083  1
  H  H466  1  0.20031928  0.66286994  0.70080655  1
  C  C467  1  0.19721274  0.59098586  0.61639906  1
  N  N468  1  0.25795061  0.60561481  0.52454381  1
  H  H469  1  0.21431181  0.65607959  0.56467655  1
  C  C470  1  0.12837055  0.64031844  0.69834499  1
  C  C471  1  0.41612975  0.59308942  0.60268785  1
  C  C472  1  0.42950855  0.61636598  0.63197134  1
  C  C473  1  0.33474672  0.54918505  0.70505113  1
  H  H474  1  0.29409329  0.68807767  0.61589681  1
  H  H475  1  0.10592134  0.58688434  0.60719537  1
  C  C476  1  0.11827303  0.61657538  0.66828413  1
  H  H477  1  0.34693276  0.72279491  0.65259830  1
  C  C478  1  0.47523417  0.69438151  0.59574262  1
  C  C479  1  0.44196998  0.71530443  0.65512625  1
  H  H480  1  0.43161919  0.72172131  0.70827156  1
  H  H481  1  0.29617003  0.58158723  0.71128409  1
  C  C482  1  0.48442612  0.71363445  0.68607942  1
  C  C483  1  0.42414841  0.53129441  0.72468553  1
  H  H484  1  0.27805315  0.56407161  0.57305279  1
  H  H485  1  0.24811012  0.54564731  0.65922890  1
  C  C486  1  0.10867621  0.55124161  0.51974141  1
  C  C487  1  0.30581500  0.52774924  0.67662052  1
  C  C488  1  0.09349804  0.71412246  0.65123259  1
  N  N489  1  0.49298887  0.56670333  0.55352470  1
  C  C490  1  0.07233148  0.72319755  0.61797114  1
  H  H491  1  0.41597522  0.51991167  0.60921057  1
  H  H492  1  0.05213455  0.65781487  0.74399883  1
  H  H493  1  0.05897167  0.68433714  0.66259981  1
  C  C494  1  0.15105338  0.51117335  0.53297008  1
  C  C495  1  0.33793929  0.63559550  0.51165506  1
  C  C496  1  0.04000599  0.63841738  0.72122683  1
  H  H497  1  0.03007973  0.70558879  0.54943798  1
  C  C498  1  0.01412748  0.58988997  0.66290577  1
  H  H499  1  0.40937192  0.52164592  0.50303962  1
  H  H500  1  0.18185299  0.73642327  0.69669211  1
  H  H501  1  0.29685949  0.74210267  0.54571765  1
  C  C502  1  0.17284816  0.73953083  0.66936539  1
  C  C503  1  0.20119126  0.58043743  0.50365868  1
  H  H504  1  0.05010945  0.85403042  0.74974913  1
  N  N505  1  0.03113727  0.99638025  0.56030922  1
  C  C506  1  0.02279579  0.94176371  0.61477341  1
  C  C507  1  0.00339501  0.92575249  0.58280404  1
  H  H508  1  0.00114204  0.93285098  0.66809746  1
  H  H509  1  0.43218065  0.79026265  0.57859600  1
  H  H510  1  0.04274827  0.90253274  0.70008358  1
  C  C511  1  0.01476604  0.84214482  0.72642406  1
  C  C512  1  0.21090054  0.78374241  0.61902697  1
  H  H513  1  0.04851759  0.97680118  0.61659487  1
  C  C514  1  0.03198732  0.95469853  0.55399535  1
  C  C515  1  0.27976521  0.75862746  0.52307900  1
  C  C516  1  0.26234810  0.80369713  0.52232963  1
  H  H517  1  0.47478834  0.86478054  0.51227021  1
  Cu  Cu518  1  0.42330646  0.83389801  0.73150747  1
  H  H519  1  0.21660356  0.93070476  0.57556354  1
  N  N520  1  0.37679481  0.97161758  0.60644185  1
  H  H521  1  0.12533468  0.76110796  0.57513529  1
  C  C522  1  0.13692293  0.75645511  0.60178445  1
  C  C523  1  0.44347701  0.94420413  0.58954481  1
  O  O524  1  0.31125018  0.79965714  0.70251763  1
  N  N525  1  0.06430710  0.93457350  0.52734592  1
  H  H526  1  0.45340216  0.94636954  0.51379652  1
  C  C527  1  0.09837428  0.96539373  0.50751198  1
  H  H528  1  0.26301989  0.81035984  0.60711335  1
  C  C529  1  0.39723690  0.90038434  0.58087585  1
  C  C530  1  0.29971616  0.83047433  0.54990587  1
  C  C531  1  0.29614210  0.80734450  0.67224806  1
  C  C532  1  0.40248417  0.82347530  0.57140659  1
  C  C533  1  0.27503335  0.90408868  0.57027449  1
  H  H534  1  0.15938566  0.87690284  0.53483920  1
  O  O535  1  0.33558476  0.83860306  0.65926516  1
  C  C536  1  0.22479515  0.77383124  0.65286457  1
  C  C537  1  0.45926685  0.85982305  0.58365912  1
  C  C538  1  0.23457854  0.87069797  0.55058332  1
  C  C539  1  0.00654261  0.86898932  0.69867843  1
  C  C540  1  0.25911097  0.70720175  0.81421140  1
  C  C541  1  0.32441560  0.70463526  0.84300930  1
  C  C542  1  0.28294856  0.61026908  0.95904293  1
  C  C543  1  0.28878111  0.59675602  0.89306008  1
  C  C544  1  0.23194222  0.63381148  0.90761799  1
  C  C545  1  0.21590598  0.64070447  0.94084918  1
  C  C546  1  0.35856635  0.57499854  0.94738686  1
  C  C547  1  0.26098283  0.58024851  0.86003969  1
  C  C548  1  0.36521655  0.57023788  0.91337862  1
  C  C549  1  0.17357266  0.53863328  0.80786120  1
  C  C550  1  0.34231297  0.55587005  0.83985087  1
  C  C551  1  0.29212958  0.53352769  0.81363241  1
  H  H552  1  0.41461441  0.68816011  0.84434633  1
  C  C553  1  0.27249756  0.72214666  0.87090552  1
  H  H554  1  0.43828751  0.55915665  0.84269907  1
  C  C555  1  0.14344885  0.72857653  0.81040592  1
  C  C556  1  0.32308363  0.69179221  0.78433058  1
  O  O557  1  0.42479014  0.67321126  0.78895889  1
  H  H558  1  0.42530944  0.54507115  0.90433734  1
  H  H559  1  0.40897279  0.55480950  0.96480648  1
  N  N560  1  0.07935790  0.52101382  0.95028630  1
  C  C561  1  0.11498600  0.51551004  0.78183750  1
  C  C562  1  0.13207274  0.58431332  0.85489516  1
  H  H563  1  0.15195357  0.66454098  0.95147521  1
  H  H564  1  0.18130757  0.65388923  0.88971320  1
  C  C565  1  0.09528732  0.56521851  0.82619967  1
  C  C566  1  0.15008000  0.73532546  0.87003605  1
  C  C567  1  0.05340733  0.54413695  0.97690661  1
  H  H568  1  0.33831209  0.51409816  0.79649162  1
  H  H569  1  0.14733538  0.51876404  0.89253193  1
  H  H570  1  0.32124302  0.71733634  0.89370501  1
  H  H571  1  0.09849081  0.73146476  0.78749528  1
  C  C572  1  0.09062109  0.74182367  0.83897739  1
  C  C573  1  0.07339529  0.74532248  0.89902040  1
  H  H574  1  0.07351479  0.60361459  0.87071839  1
  O  O575  1  0.44454258  0.59172416  0.75905454  1
  O  O576  1  0.27689840  0.69823560  0.75842520  1
  C  C577  1  0.48690282  0.72524796  0.99090029  1
  O  O578  1  0.00664845  0.52378774  0.77520691  1
  C  C579  1  0.47681035  0.55452044  0.75178196  1
  C  C580  1  0.28777911  0.61324729  0.99579860  1
  C  C581  1  0.01510846  0.89301090  0.82259803  1
  H  H582  1  0.21292765  0.75584285  0.93704431  1
  C  C583  1  0.11944311  0.76089633  0.92923852  1
  H  H584  1  0.00463803  0.75629098  0.83903586  1
  C  C585  1  0.49059059  0.90161712  0.94394190  1
  C  C586  1  0.03973416  0.77628768  0.95274438  1
  C  C587  1  0.36500377  0.98624823  0.98325552  1
  H  H588  1  0.08673904  0.83412643  0.89109164  1
  H  H589  1  0.46462456  0.89931597  0.96995462  1
  C  C590  1  0.01189190  0.87907219  0.85618858  1
  C  C591  1  0.22986862  0.98783152  0.82323321  1
  C  C592  1  0.35440828  0.99249394  0.81804381  1
  C  C593  1  0.43628788  0.97781096  0.84144834  1
  H  H594  1  0.02208522  0.92345923  0.98124111  1
  C  C595  1  0.18224973  0.83463835  0.84419251  1
  O  O596  1  0.38900282  0.79039773  0.98277757  1
  C  C597  1  0.42751800  0.92368285  0.92079453  1
  C  C598  1  0.46864338  0.92526953  0.88838413  1
  C  C599  1  0.25704442  0.94553577  0.87054559  1
  H  H600  1  0.20364053  0.94816493  0.97409076  1
  H  H601  1  0.07986231  0.96458234  0.85293085  1
  C  C602  1  0.38343594  0.94938998  0.86577294  1
  O  O603  1  0.30075540  0.84951127  0.76126812  1
  H  H604  1  0.22295013  0.92500387  0.89015161  1
  O  O605  1  0.37310906  0.81980946  0.80559991  1
  C  C606  1  0.28944112  0.94885050  0.98785883  1
  O  O607  1  0.21144029  0.88624813  0.94315077  1
  H  H608  1  0.34338762  0.94142946  0.92762522  1
  C  C609  1  0.19247316  0.85277897  0.81273200  1
  C  C610  1  0.20861013  0.85245896  0.94660397  1
  C  C611  1  0.10565690  0.88122727  0.80177721  1
  H  H612  1  0.06607008  0.78798668  0.97695055  1
  H  H613  1  0.11954592  0.89603663  0.77864903  1
  C  C614  1  0.09596280  0.84712599  0.86658938  1
  C  C615  1  0.17776953  0.96837238  0.85037204  1
  C  C616  1  0.29569331  0.83853981  0.79241723  1
  H  H617  1  0.24305429  0.80713354  0.85266102  1
  C  C618  1  0.37690961  0.75371614  0.99330411  1
  H  H619  1  0.05502795  0.84409245  0.99973410  1
  C  C620  1  0.71221911  0.21885362  0.08020306  1
  C  C621  1  0.73196774  0.17672393  0.09500136  1
  C  C622  1  0.59710641  0.22222742  0.06131639  1
  C  C623  1  0.60238401  0.17747199  0.20770943  1
  O  O624  1  0.60585298  0.14013326  0.20095598  1
  H  H625  1  0.68780868  0.10159347  0.02952475  1
  H  H626  1  0.73116354  0.02908779  0.06195376  1
  H  H627  1  0.67135919  0.15065223  0.08788831  1
  H  H628  1  0.82227225  0.14172608  0.13308203  1
  H  H629  1  0.77778219  0.17270631  0.03562020  1
  C  C630  1  0.82144985  0.17034415  0.11810879  1
  C  C631  1  0.89715455  0.20771189  0.12400749  1
  C  C632  1  0.79806548  0.15285174  0.01420069  1
  O  O633  1  0.66305057  0.19518928  0.23126664  1
  C  C634  1  0.58532883  0.24090334  0.02909478  1
  C  C635  1  0.50870433  0.20653487  0.19214186  1
  C  C636  1  0.74494846  0.11264012  0.00993687  1
  N  N637  1  0.72213695  0.02647118  0.01090502  1
  C  C638  1  0.88686803  0.24650421  0.10602213  1
  H  H639  1  0.79247868  0.00787405  0.12180628  1
  O  O640  1  0.82774323  0.24398018  0.20332773  1
  Cu  Cu641  1  0.82804952  0.20383181  0.23623137  1
  O  O642  1  0.99045471  0.16493733  0.16460895  1
  C  C643  1  0.50374289  0.06992145  0.06249171  1
  H  H644  1  0.52785225  0.01730497  0.00111596  1
  C  C645  1  0.98708358  0.20035429  0.14881192  1
  Cu  Cu646  1  0.99336723  0.15966997  0.20934528  1
  C  C647  1  0.79285305  0.25392596  0.08480367  1
  C  C648  1  0.98691783  0.42613216  0.05355130  1
  C  C649  1  0.65280298  0.36163784  0.09153853  1
  H  H650  1  0.88969233  0.37863590  0.11246907  1
  H  H651  1  0.65551871  0.26391197  0.02192899  1
  O  O652  1  0.90101629  0.39782617  0.20103060  1
  C  C653  1  0.72308282  0.34147279  0.11850992  1
  C  C654  1  0.89578078  0.43933526  0.19944765  1
  H  H655  1  0.65931705  0.27372023  0.18062434  1
  C  C656  1  0.64880334  0.31726840  0.13909915  1
  C  C657  1  0.89517635  0.33349606  0.15300205  1
  H  H658  1  0.94847303  0.27218078  0.11321108  1
  C  C659  1  0.68293633  0.46062529  0.13137980  1
  H  H660  1  0.54615505  0.25740632  0.22594680  1
  Cu  Cu661  1  0.71229655  0.48165150  0.23927672  1
  H  H662  1  0.53926017  0.36873780  0.15637431  1
  H  H663  1  0.74979862  0.40196964  0.15543661  1
  H  H664  1  0.77004400  0.28545069  0.07361518  1
  H  H665  1  0.60427744  0.47686734  0.06756032  1
  O  O666  1  0.99070724  0.28457082  0.20611800  1
  H  H667  1  0.62366359  0.44063395  0.11568069  1
  H  H668  1  0.69729439  0.43902381  0.02974529  1
  C  C669  1  0.65726561  0.41244207  0.04552421  1
  C  C670  1  0.89119927  0.46121704  0.00531492  1
  H  H671  1  0.88745572  0.49156895  0.01860950  1
  C  C672  1  0.94029243  0.42385075  0.01987282  1
  O  O673  1  0.95792414  0.46174649  0.21851621  1
  N  N674  1  0.96436096  0.46227140  0.06963896  1
  H  H675  1  0.98610473  0.34124365  0.15907201  1
  C  C676  1  0.74850083  0.43777116  0.15364900  1
  Cu  Cu677  1  0.79236556  0.35815325  0.21589709  1
  C  C678  1  0.70247172  0.39964021  0.07599572  1
  C  C679  1  0.81668712  0.46090491  0.17740049  1
  C  C680  1  0.70702949  0.29630608  0.16444512  1
  C  C681  1  0.58572272  0.41255293  0.20956934  1
  O  O682  1  0.59982150  0.43848075  0.23274375  1
  H  H683  1  0.55429612  0.31210240  0.13423170  1
  C  C684  1  0.51573790  0.42751601  0.18233574  1
  C  C685  1  0.88576665  0.27863576  0.19647365  1
  O  O686  1  0.62899260  0.37457230  0.20945494  1
  C  C687  1  0.55973342  0.38965246  0.03168179  1
  H  H688  1  0.78535815  0.41507717  0.08579911  1
  C  C689  1  0.84220769  0.35443494  0.12709997  1
  C  C690  1  0.54800588  0.34142729  0.07757777  1
  C  C691  1  0.83001677  0.30441895  0.17105422  1
  C  C692  1  0.50166060  0.40068497  0.15502180  1
  C  C693  1  0.50220881  0.35511349  0.04751747  1
  C  C694  1  0.95843861  0.38494251  0.00097221  1
  C  C695  1  0.80985629  0.06191139  0.33362245  1
  H  H696  1  0.72900586  0.05113672  0.34567954  1
  C  C697  1  0.80801658  0.09788908  0.31281612  1
  H  H698  1  0.72848106  0.11795624  0.30880352  1
  C  C699  1  0.74892332  0.08296885  0.44976683  1
  H  H700  1  0.65671398  0.07372260  0.45380598  1
  C  C701  1  0.78486920  0.10299655  0.42007151  1
  H  H702  1  0.72337957  0.10439767  0.39873171  1
  C  C703  1  0.82791791  0.07451749  0.47542289  1
  H  H704  1  0.89173412  0.19354365  0.49134429  1
  C  C705  1  0.80648621  0.21054063  0.48601065  1
  C  C706  1  0.72301071  0.18991255  0.46862142  1
  H  H707  1  0.74775375  0.15773479  0.46150222  1
  N  N708  1  0.53330577  0.01272619  0.43381742  1
  C  C709  1  0.91604273  0.03669126  0.33856650  1
  C  C710  1  0.91650194  0.10758290  0.29665126  1
  C  C711  1  0.60974915  0.20831528  0.45688589  1
  H  H712  1  0.97642046  0.02803541  0.40202412  1
  C  C713  1  0.92266204  0.14275033  0.27361716  1
  C  C714  1  0.99091599  0.10162897  0.44274322  1
  O  O715  1  0.53138821  0.18790871  0.44328501  1
  O  O716  1  0.83897159  0.16956115  0.27223396  1
  C  C717  1  0.51916744  0.00271387  0.46438082  1
  C  C718  1  0.95157369  0.08576614  0.47327610  1
  C  C719  1  0.90755441  0.11192563  0.41881120  1
  H  H720  1  0.51664048  0.01384314  0.36928661  1
  C  C721  1  0.94676850  0.13471270  0.38666173  1
  O  O722  1  0.88426410  0.15072649  0.36528200  1
  C  C723  1  0.61950043  0.49727618  0.40157880  1
  H  H724  1  0.89923070  0.30683032  0.44485043  1
  C  C725  1  0.69011105  0.38234035  0.46269167  1
  H  H726  1  0.77093844  0.45933231  0.41978522  1
  Cu  Cu727  1  0.97202936  0.29344862  0.28308622  1
  C  C728  1  0.55884541  0.34575899  0.42227281  1
  C  C729  1  0.83320414  0.48798775  0.49402110  1
  C  C730  1  0.97131704  0.38134055  0.38672204  1
  C  C731  1  0.95138680  0.42244632  0.49737406  1
  C  C732  1  0.59718539  0.38943008  0.48407323  1
  O  O733  1  0.88301381  0.34277478  0.29010818  1
  C  C734  1  0.87902425  0.31235723  0.37194334  1
  H  H735  1  0.50113837  0.26684011  0.46230021  1
  H  H736  1  0.63556135  0.40131212  0.37971194  1
  C  C737  1  0.72216542  0.47145253  0.39779767  1
  H  H738  1  0.77564290  0.39637924  0.47067812  1
  C  C739  1  0.78410227  0.25639899  0.48993949  1
  C  C740  1  0.58800527  0.25331103  0.46722056  1
  O  O741  1  0.67416195  0.48330646  0.28403804  1
  C  C742  1  0.74158695  0.47558561  0.30728115  1
  C  C743  1  0.69833608  0.48185644  0.33964553  1
  C  C744  1  0.68147313  0.36566047  0.30200769  1
  C  C745  1  0.67452602  0.35959348  0.43229206  1
  H  H746  1  0.88552476  0.28392415  0.35509353  1
  H  H747  1  0.88029446  0.41627028  0.42521141  1
  Cu  Cu748  1  0.93664732  0.47238137  0.26500858  1
  O  O749  1  0.74500466  0.33412782  0.25386777  1
  C  C750  1  0.77186891  0.46860752  0.36596938  1
  H  H751  1  0.54682677  0.36129234  0.26298748  1
  C  C752  1  0.61574852  0.39407853  0.35414983  1
  C  C753  1  0.89046986  0.28427755  0.49670571  1
  C  C754  1  0.78020028  0.31830818  0.39198696  1
  C  C755  1  0.78493160  0.35617347  0.41125926  1
  H  H756  1  0.53517946  0.32778715  0.40040936  1
  O  O757  1  0.85245502  0.46734468  0.30488446  1
  C  C758  1  0.97651412  0.47425129  0.44844933  1
  H  H759  1  0.71109628  0.29405095  0.39468471  1
  C  C760  1  0.87472556  0.38795650  0.40801441  1
  C  C761  1  0.56609719  0.37164928  0.28784433  1
  H  H762  1  0.79992385  0.37692468  0.34093666  1
  C  C763  1  0.70334153  0.37942604  0.33431964  1
  C  C764  1  0.92658011  0.46202374  0.48189260  1
  H  H765  1  0.85674630  0.45175035  0.36200073  1
  C  C766  1  0.77382961  0.34718764  0.28196731  1
  H  H767  1  0.65680083  0.31146947  0.48451896  1
  C  C768  1  0.97398388  0.34241603  0.36920913  1
  C  C769  1  0.67511547  0.27756529  0.48089413  1
  C  C770  1  0.93711873  0.30911327  0.46968231  1
  H  H771  1  0.84199757  0.19498837  0.63926587  1
  C  C772  1  0.90958844  0.18148536  0.65651609  1
  C  C773  1  0.71509139  0.07929476  0.52646410  1
  C  C774  1  0.65998644  0.06196993  0.55349319  1
  H  H775  1  0.89732745  0.04900523  0.56580004  1
  H  H776  1  0.82832030  0.12601995  0.57446260  1
  C  C777  1  0.66526747  0.01756651  0.55916732  1
  C  C778  1  0.91681416  0.11848651  0.56730980  1
  C  C779  1  0.95228230  0.07609133  0.56021288  1
  C  C780  1  0.93334267  0.20030458  0.68712804  1
  H  H781  1  0.60773576  0.08140369  0.57186826  1
  H  H782  1  0.70099213  0.11342639  0.51792934  1
  C  C783  1  0.78735899  0.05289621  0.50762749  1
  H  H784  1  0.77603841  0.19134987  0.56004292  1
  C  C785  1  0.84862900  0.20832204  0.57395737  1
  N  N786  1  0.51804637  0.02722952  0.60034282  1
  C  C787  1  0.80790538  0.00858249  0.51408932  1
  H  H788  1  0.97686310  0.13571980  0.62123458  1
  C  C789  1  0.98440324  0.14945706  0.64621221  1
  C  C790  1  0.96834587  0.19412813  0.57635037  1
  C  C791  1  0.84812787  0.23540874  0.69578747  1
  O  O792  1  0.75115803  0.24081863  0.68083135  1
  C  C793  1  0.83143396  0.24152502  0.59625020  1
  C  C794  1  0.99832547  0.15244782  0.55818282  1
  H  H795  1  0.50184647  0.44093121  0.67911027  1
  H  H796  1  0.69674147  0.49549928  0.53335532  1
  O  O797  1  0.73094634  0.49731279  0.70885065  1
  O  O798  1  0.96443794  0.31570872  0.65641061  1
  C  C799  1  0.95528256  0.28338978  0.52753557  1
  C  C800  1  0.60919731  0.42554829  0.57502081  1
  C  C801  1  0.63858965  0.39547655  0.62890310  1
  C  C802  1  0.76632286  0.47552043  0.52196913  1
  H  H803  1  0.74022728  0.25009482  0.59982951  1
  O  O804  1  0.88562410  0.26075327  0.71649346  1
  C  C805  1  0.86188056  0.49041883  0.66472490  1
  C  C806  1  0.57822058  0.37342165  0.65597558  1
  C  C807  1  0.79402090  0.43686235  0.53828258  1
  H  H808  1  0.92284940  0.26146052  0.54672946  1
  O  O809  1  0.63339242  0.35436138  0.67882463  1
  H  H810  1  0.55282339  0.48067165  0.73140265  1
  C  C811  1  0.76228827  0.39743798  0.62556345  1
  Cu  Cu812  1  0.69362685  0.29869093  0.68050260  1
  C  C813  1  0.89278804  0.30001470  0.63660420  1
  H  H814  1  0.81332821  0.38868696  0.64613001  1
  C  C815  1  0.88155130  0.40970315  0.52366171  1
  C  C816  1  0.91942794  0.26374581  0.61407210  1
  H  H817  1  0.89532169  0.38053661  0.53764191  1
  O  O818  1  0.78196902  0.30767628  0.63975610  1
  O  O819  1  0.91138871  0.47702011  0.72079527  1
  H  H820  1  0.55053906  0.43148301  0.55506590  1
  C  C821  1  0.83481248  0.48885663  0.69931147  1
  C  C822  1  0.73701314  0.42701437  0.57187101  1
  C  C823  1  0.56276979  0.41113547  0.60461302  1
  H  H824  1  0.90800599  0.42168665  0.59108228  1
  C  C825  1  0.80996378  0.41572554  0.59723524  1
  Cu  Cu826  1  0.98572333  0.30497239  0.69923438  1
  C  C827  1  0.98303180  0.48360843  0.65692276  1
  H  H828  1  0.60693808  0.40985336  0.50571118  1
  C  C829  1  0.60344837  0.19322826  0.92761862  1
  C  C830  1  0.54276931  0.06724285  0.86434229  1
  C  C831  1  0.65529996  0.06098428  0.87789789  1
  C  C832  1  0.60350644  0.16600747  0.95612299  1
  C  C833  1  0.75958597  0.06653654  0.85792913  1
  C  C834  1  0.64020993  0.08051495  0.81071557  1
  C  C835  1  0.75164819  0.07130488  0.82369332  1
  H  H836  1  0.66154585  0.05573418  0.90424292  1
  C  C837  1  0.82086672  0.10999033  0.95421724  1
  C  C838  1  0.76390533  0.08839736  0.98147814  1
  H  H839  1  0.83134372  0.06320004  0.80704779  1
  C  C840  1  0.74573066  0.04057770  0.98135529  1
  H  H841  1  0.66713927  0.17418984  0.97602096  1
  H  H842  1  0.83408930  0.09472715  0.92893513  1
  N  N843  1  0.76674580  0.01930405  0.95370701  1
  H  H844  1  0.62918957  0.08756336  0.78537804  1
  C  C845  1  0.86730924  0.14973453  0.95624576  1
  H  H846  1  0.74843953  0.20629672  0.87820171  1
  H  H847  1  0.91422348  0.16421319  0.93561099  1
  C  C848  1  0.88281682  0.06433052  0.87321419  1
  C  C849  1  0.90206761  0.03685789  0.90081731  1
  C  C850  1  0.86361332  0.17012751  0.98771726  1
  H  H851  1  0.83410362  0.01872080  0.91454726  1
  H  H852  1  0.53589354  0.20259190  0.87807939  1
  C  C853  1  0.52966478  0.18216022  0.89974959  1
  C  C854  1  0.53666537  0.07863287  0.83139673  1
  C  C855  1  0.68458189  0.23157111  0.92441464  1
  C  C856  1  0.75579268  0.23159534  0.89597157  1
  C  C857  1  0.93933763  0.20920815  0.99315979  1
  C  C858  1  0.53640160  0.12776635  0.95810362  1
  H  H859  1  0.92357634  0.00423942  0.98811530  1
  H  H860  1  0.53502606  0.10786182  0.97953808  1
  H  H861  1  0.89323326  0.23483030  0.94587535  1
  C  C862  1  0.95420079  0.23766960  0.96670018  1
  C  C863  1  0.99016880  0.08183220  0.85708744  1
  H  H864  1  0.98188545  0.10038721  0.83453694  1
  H  H865  1  0.50450578  0.22382475  0.76810390  1
  H  H866  1  0.50157725  0.23099778  0.98082032  1
  H  H867  1  0.82841290  0.48789406  0.95897612  1
  C  C868  1  0.85789753  0.45922944  0.97284713  1
  C  C869  1  0.61652790  0.48753117  0.90503712  1
  C  C870  1  0.88901452  0.46375569  0.90211803  1
  O  O871  1  0.70642005  0.42445062  0.80311513  1
  H  H872  1  0.56669798  0.26579976  0.81390453  1
  C  C873  1  0.76295667  0.40096740  0.90217895  1
  C  C874  1  0.77193075  0.29834041  0.94414205  1
  C  C875  1  0.53463013  0.40216352  0.99593195  1
  H  H876  1  0.60416992  0.45795652  0.89066707  1
  C  C877  1  0.92521734  0.38190134  0.96788478  1
  H  H878  1  0.95140691  0.48786274  0.91571748  1
  C  C879  1  0.68777770  0.26731363  0.94766887  1
  H  H880  1  0.77127238  0.32524071  0.96122769  1
  H  H881  1  0.52551695  0.38315528  0.88248961  1
  O  O882  1  0.82638793  0.48068365  0.80495637  1
  C  C883  1  0.78516965  0.44000504  0.85330615  1
  C  C884  1  0.84313920  0.42786086  0.91889642  1
  H  H885  1  0.72368941  0.37343460  0.91544292  1
  C  C886  1  0.60010079  0.48480024  0.93944723  1
  C  C887  1  0.56069427  0.44332364  0.95658669  1
  C  C888  1  0.84822034  0.30084031  0.91428495  1
  C  C889  1  0.73282566  0.40521990  0.86995932  1
  C  C890  1  0.83368863  0.26544380  0.89112852  1
  C  C891  1  0.86009838  0.46869186  0.86983286  1
  Cu  Cu892  1  0.88383446  0.48368396  0.76543681  1
  H  H893  1  0.61230002  0.27206746  0.96398156  1
  N  N894  1  0.56770217  0.44081232  0.98859429  1
  H  H895  1  0.67583868  0.38111943  0.85809493  1
  C  C896  1  0.87749928  0.42045836  0.95416199  1
  C  C897  1  0.76691450  0.44864184  0.81797290  1
  H  H898  1  0.89591174  0.26264788  0.87007366  1
  O  O899  1  0.92373056  0.32999132  0.90967868  1
  H  H900  1  0.93829065  0.35105880  0.95155403  1
  H  H901  1  0.99754441  0.36763363  0.82043997  1
  N  N902  1  0.52203876  0.41521819  0.93497340  1
  O  O903  1  0.99504881  0.38498779  0.76398997  1
  H  H904  1  0.90071786  0.49479708  0.85486517  1
  C  C905  1  0.50211508  0.35022817  0.88754326  1
  H  H906  1  0.74481870  0.56379027  0.14902821  1
  C  C907  1  0.69267858  0.68316652  0.11952848  1
  C  C908  1  0.75724385  0.69680979  0.09124383  1
  C  C909  1  0.74600758  0.52863751  0.15302198  1
  H  H910  1  0.74631721  0.61355878  0.03262971  1
  C  C911  1  0.68620329  0.71720703  0.06565777  1
  H  H912  1  0.74166219  0.66430641  0.13762149  1
  C  C913  1  0.60461566  0.52870888  0.10552181  1
  H  H914  1  0.81792652  0.67883891  0.02978392  1
  H  H915  1  0.88083655  0.52550167  0.18592315  1
  C  C916  1  0.88166002  0.68503731  0.08141336  1
  C  C917  1  0.89622235  0.67892281  0.04661233  1
  O  O918  1  0.60941368  0.53053078  0.23053412  1
  O  O919  1  0.71103797  0.59063346  0.23049214  1
  H  H920  1  0.96700268  0.68595552  0.13058059  1
  C  C921  1  0.56642659  0.57096473  0.11523989  1
  C  C922  1  0.67631809  0.50561460  0.13078449  1
  H  H923  1  0.60015706  0.58588887  0.13903097  1
  H  H924  1  0.90472246  0.55428479  0.02928553  1
  C  C925  1  0.57169425  0.69281021  0.12268482  1
  C  C926  1  0.81690932  0.50574584  0.17499381  1
  H  H927  1  0.73309022  0.72961102  0.04352921  1
  C  C928  1  0.98038035  0.68106745  0.10395128  1
  C  C929  1  0.80174863  0.60901238  0.01163184  1
  C  C930  1  0.89117463  0.57868882  0.01151990  1
  H  H931  1  0.81993574  0.62381447  0.18344898  1
  C  C932  1  0.62832579  0.57020257  0.24041113  1
  H  H933  1  0.88997038  0.60956851  0.10632231  1
  H  H934  1  0.90356880  0.54188190  0.07658149  1
  C  C935  1  0.94522926  0.54507457  0.09938224  1
  H  H936  1  0.83916972  0.68523863  0.22051500  1
  C  C937  1  0.57600867  0.51015839  0.07463053  1
  C  C938  1  0.56581471  0.72389241  0.06877209  1
  H  H939  1  0.76104061  0.72748875  0.20497387  1
  H  H940  1  0.81292551  0.74017731  0.14632408  1
  C  C941  1  0.50530817  0.53442090  0.05289072  1
  H  H942  1  0.52486056  0.68367628  0.14574587  1
  C  C943  1  0.50810645  0.71374341  0.09810981  1
  C  C944  1  0.94412058  0.58379717  0.11655981  1
  H  H945  1  0.52531246  0.74376145  0.04898323  1
  C  C946  1  0.91711504  0.67269558  0.20831461  1
  C  C947  1  0.90716127  0.64020054  0.18453596  1
  O  O948  1  0.96478525  0.74269581  0.24902984  1
  H  H949  1  0.56153878  0.62166832  0.01054265  1
  C  C950  1  0.57708895  0.65613234  0.00159660  1
  C  C951  1  0.74058491  0.83144329  0.00459780  1
  C  C952  1  0.71232119  0.75286501  0.18972801  1
  C  C953  1  0.83770992  0.88085308  0.14971273  1
  C  C954  1  0.68139794  0.79436851  0.14210324  1
  H  H955  1  0.76220484  0.86287306  0.14029558  1
  C  C956  1  0.55921395  0.81077394  0.19115336  1
  H  H957  1  0.97189248  0.98244375  0.14464661  1
  C  C958  1  0.74566953  0.99490711  0.07063740  1
  C  C959  1  0.79353616  0.90722339  0.08251833  1
  H  H960  1  0.53874942  0.84641607  0.10587663  1
  C  C961  1  0.62356807  0.77700128  0.20651252  1
  C  C962  1  0.80949699  0.79523629  0.09191614  1
  H  H963  1  0.56616587  0.85037605  0.14749215  1
  C  C964  1  0.73481510  0.98459843  0.00961659  1
  C  C965  1  0.82582319  0.80611215  0.05874074  1
  H  H966  1  0.91109301  0.79938854  0.04712971  1
  C  C967  1  0.61613985  0.83590352  0.09180679  1
  C  C968  1  0.74457704  0.75921272  0.15747058  1
  C  C969  1  0.77823089  0.98412669  0.10240060  1
  C  C970  1  0.85939222  0.92391540  0.13978127  1
  C  C971  1  0.73172596  0.82724809  0.04230030  1
  C  C972  1  0.80192922  0.93813298  0.10838204  1
  H  H973  1  0.80177022  0.87215151  0.08861491  1
  C  C974  1  0.70381959  0.80917703  0.10756445  1
  C  C975  1  0.74898092  0.96435447  0.04426287  1
  C  C976  1  0.94417974  0.95212943  0.15453227  1
  C  C977  1  0.60077141  0.82050374  0.16012665  1
  C  C978  1  0.91059112  0.86329878  0.17341279  1
  C  C979  1  0.76687736  0.92004165  0.05043198  1
  H  H980  1  0.87367076  0.77839407  0.10775503  1
  C  C981  1  0.63074334  0.84518165  0.05863586  1
  C  C982  1  0.59591960  0.76813392  0.24047503  1
  H  H983  1  0.90456342  0.82965020  0.18135388  1
  H  H984  1  0.56423491  0.86673112  0.04625770  1
  H  H985  1  0.55154082  0.97155224  0.04872607  1
  H  H986  1  0.76444501  0.89806315  0.03045835  1
  C  C987  1  0.99965442  0.89030013  0.18612284  1
  C  C988  1  0.73616667  0.68738286  0.36396828  1
  C  C989  1  0.75496003  0.71337829  0.33515266  1
  C  C990  1  0.65604101  0.70363949  0.38827504  1
  H  H991  1  0.88327853  0.67719844  0.41215269  1
  H  H992  1  0.79725230  0.69984036  0.31227843  1
  C  C993  1  0.78650065  0.64413013  0.37340216  1
  C  C994  1  0.86860614  0.64573860  0.40095940  1
  C  C995  1  0.77434333  0.60422946  0.35592973  1
  H  H996  1  0.71805781  0.60322387  0.33352353  1
  C  C997  1  0.82551351  0.56790448  0.36886763  1
  C  C998  1  0.68986903  0.68435801  0.46531058  1
  C  C999  1  0.89603872  0.56811383  0.39836979  1
  C  C1000  1  0.66581334  0.56943608  0.47677843  1
  H  H1001  1  0.67406485  0.64170572  0.27307341  1
  H  H1002  1  0.59962081  0.60908613  0.38194634  1
  H  H1003  1  0.73864835  0.55811159  0.42637096  1
  C  C1004  1  0.67511273  0.54825051  0.44722403  1
  H  H1005  1  0.63501431  0.68494226  0.41062895  1
  O  O1006  1  0.78979858  0.67289693  0.46653023  1
  C  C1007  1  0.65493837  0.73083169  0.46500205  1
  H  H1008  1  0.81020870  0.53529487  0.35677605  1
  C  C1009  1  0.59876318  0.62409395  0.28424202  1
  O  O1010  1  0.60300197  0.65692144  0.46610519  1
  H  H1011  1  0.58734307  0.66244339  0.32746298  1
  H  H1012  1  0.72320894  0.59680841  0.48285900  1
  C  C1013  1  0.54774776  0.63667143  0.31344679  1
  C  C1014  1  0.55424770  0.58748511  0.26779787  1
  C  C1015  1  0.91627202  0.60772272  0.41486763  1
  C  C1016  1  0.59585819  0.51421962  0.43696217  1
  C  C1017  1  0.95286480  0.52662918  0.41042542  1
  H  H1018  1  0.81048711  0.74791423  0.43711696  1
  H  H1019  1  0.52812223  0.60075474  0.43877933  1
  N  N1020  1  0.91736833  0.50992996  0.43815191  1
  H  H1021  1  0.97461665  0.61017649  0.43599927  1
  H  H1022  1  0.81297257  0.51933558  0.48122716  1
  C  C1023  1  0.61597568  0.74505241  0.38654321  1
  C  C1024  1  0.50272085  0.61059976  0.38807820  1
  C  C1025  1  0.54610948  0.74404580  0.47843806  1
  O  O1026  1  0.63880021  0.73823036  0.25459998  1
  C  C1027  1  0.54532836  0.51063102  0.37521958  1
  C  C1028  1  0.58706154  0.50170154  0.34418913  1
  H  H1029  1  0.53134690  0.50968206  0.32148385  1
  C  C1030  1  0.58168483  0.55209074  0.49937761  1
  O  O1031  1  0.52693376  0.79730706  0.25501402  1
  C  C1032  1  0.53799900  0.95377966  0.46718827  1
  C  C1033  1  0.72474360  0.75575281  0.33385328  1
  C  C1034  1  0.86640594  0.95738882  0.34422388  1
  C  C1035  1  0.90342242  0.83740255  0.45809575  1
  O  O1036  1  0.64513567  0.83632336  0.33567615  1
  C  C1037  1  0.89166493  0.92136220  0.39697772  1
  C  C1038  1  0.59938275  0.93372192  0.44025268  1
  C  C1039  1  0.93729744  0.96026983  0.41067520  1
  N  N1040  1  0.87957285  0.87522535  0.44500430  1
  C  C1041  1  0.56773987  0.86393096  0.46515723  1
  H  H1042  1  0.84731203  0.95567387  0.31683675  1
  C  C1043  1  0.91004366  0.99583555  0.35930786  1
  Cu  Cu1044  1  0.57571968  0.81846681  0.29525767  1
  O  O1045  1  0.53415174  0.82869182  0.38147227  1
  H  H1046  1  0.63646341  0.95411613  0.42255670  1
  C  C1047  1  0.94332786  0.99740397  0.39271717  1
  C  C1048  1  0.85385187  0.83043440  0.49148259  1
  H  H1049  1  0.98188443  0.80354141  0.34774558  1
  H  H1050  1  0.75356501  0.82042112  0.43208723  1
  N  N1051  1  0.95535299  0.84452232  0.39829469  1
  H  H1052  1  0.97619328  0.95651350  0.43532782  1
  C  C1053  1  0.64847091  0.77119181  0.36033372  1
  H  H1054  1  0.53006596  0.90680451  0.33856725  1
  H  H1055  1  0.65328871  0.87089014  0.41841426  1
  H  H1056  1  0.56731404  0.75643724  0.40701182  1
  N  N1057  1  0.95377942  0.80254862  0.44346412  1
  H  H1058  1  0.82111433  0.88968577  0.35171710  1
  C  C1059  1  0.72766879  0.75830950  0.44707203  1
  H  H1060  1  0.77262658  0.89374540  0.49115110  1
  C  C1061  1  0.68763234  0.80026155  0.44266306  1
  C  C1062  1  0.50848015  0.78615504  0.47708834  1
  C  C1063  1  0.90724941  0.87822657  0.41367024  1
  C  C1064  1  0.61074773  0.81530771  0.36149315  1
  H  H1065  1  0.74794333  0.77707327  0.31397658  1
  C  C1066  1  0.58286072  0.81619003  0.45989761  1
  C  C1067  1  0.85599804  0.92044163  0.36361847  1
  C  C1068  1  0.97342684  0.80512617  0.41176109  1
  C  C1069  1  0.60807707  0.88869368  0.43823574  1
  C  C1070  1  0.99724002  0.76646453  0.39111395  1
  C  C1071  1  0.99415817  0.77242815  0.35671103  1
  H  H1072  1  0.92458893  0.76957238  0.49890468  1
  H  H1073  1  0.86063154  0.98707009  0.49770005  1
  C  C1074  1  0.89001416  0.65852519  0.55301143  1
  H  H1075  1  0.88084251  0.65864209  0.52640844  1
  C  C1076  1  0.81283835  0.63579857  0.57491004  1
  C  C1077  1  0.83141098  0.63585104  0.60977584  1
  H  H1078  1  0.77208768  0.61421214  0.62343305  1
  C  C1079  1  0.70656675  0.60900702  0.56781979  1
  N  N1080  1  0.69098414  0.59306651  0.53881136  1
  C  C1081  1  0.68894860  0.69759718  0.66420049  1
  H  H1082  1  0.84585012  0.57479692  0.67800057  1
  C  C1083  1  0.65915255  0.70116141  0.72268386  1
  H  H1084  1  0.70587132  0.69242873  0.61110527  1
  O  O1085  1  0.76853590  0.70098695  0.72383367  1
  C  C1086  1  0.64765667  0.69905860  0.63199296  1
  C  C1087  1  0.91918671  0.66403250  0.62240442  1
  H  H1088  1  0.64576095  0.70076054  0.56860105  1
  C  C1089  1  0.58663492  0.57198550  0.53392803  1
  H  H1090  1  0.83482794  0.56690872  0.55618827  1
  C  C1091  1  0.92362289  0.59297976  0.68554692  1
  C  C1092  1  0.97007159  0.68772650  0.56710745  1
  H  H1093  1  0.78583806  0.69328103  0.66947001  1
  C  C1094  1  0.92399178  0.55436574  0.55071788  1
  C  C1095  1  0.92806841  0.61608660  0.71436149  1
  O  O1096  1  0.73942101  0.59452350  0.73414279  1
  C  C1097  1  0.83109277  0.61667565  0.73851807  1
  N  N1098  1  0.62631336  0.60392630  0.59000434  1
  H  H1099  1  0.94149561  0.66336593  0.64975502  1
  C  C1100  1  0.99315453  0.69054324  0.60176801  1
  C  C1101  1  0.60656977  0.70245843  0.68946530  1
  H  H1102  1  0.99711499  0.57267610  0.63974489  1
  C  C1103  1  0.97665615  0.51926083  0.56880296  1
  Cu  Cu1104  1  0.71048207  0.53689028  0.74296173  1
  C  C1105  1  0.99621446  0.57165169  0.52694022  1
  O  O1106  1  0.59181164  0.69607591  0.74803718  1
  H  H1107  1  0.73726221  0.51897424  0.59189985  1
  C  C1108  1  0.80592711  0.51054887  0.60951418  1
  C  C1109  1  0.77413254  0.50149880  0.64099287  1
  H  H1110  1  0.67666503  0.50268639  0.64728249  1
  C  C1111  1  0.93168113  0.50707683  0.60244306  1
  H  H1112  1  0.91383781  0.74451879  0.69611702  1
  H  H1113  1  0.56376788  0.67657834  0.51818705  1
  H  H1114  1  0.96540403  0.59884346  0.51348208  1
  C  C1115  1  0.54817051  0.69551656  0.56767614  1
  C  C1116  1  0.50434552  0.67972173  0.53836806  1
  C  C1117  1  0.52037595  0.58685867  0.58024144  1
  H  H1118  1  0.51865991  0.62386892  0.63750985  1
  C  C1119  1  0.52007720  0.70491085  0.62817525  1
  H  H1120  1  0.66363918  0.76498739  0.60199879  1
  H  H1121  1  0.59584687  0.77770988  0.65715675  1
  C  C1122  1  0.56767908  0.99777415  0.58170216  1
  C  C1123  1  0.73381842  0.86035641  0.53644238  1
  C  C1124  1  0.96979181  0.85621184  0.60690781  1
  C  C1125  1  0.73582181  0.87340354  0.60483262  1
  C  C1126  1  0.70104984  0.88005665  0.63712479  1
  C  C1127  1  0.78206127  0.86459808  0.50567209  1
  O  O1128  1  0.55897574  0.82599845  0.70690696  1
  H  H1129  1  0.95771777  0.86675820  0.55559000  1
  H  H1130  1  0.95866453  0.82205730  0.60338362  1
  C  C1131  1  0.97007245  0.84691071  0.66938089  1
  C  C1132  1  0.97612091  0.87489433  0.63928361  1
  H  H1133  1  0.67048633  0.88568007  0.54639344  1
  H  H1134  1  0.91374934  0.78662359  0.64446239  1
  H  H1135  1  0.77831914  0.89764424  0.58958742  1
  N  N1136  1  0.54885117  0.95643148  0.57689991  1
  H  H1137  1  0.53961527  0.85553694  0.59922062  1
  C  C1138  1  0.73195291  0.99127634  0.53839244  1
  C  C1139  1  0.67076080  0.79894061  0.61120809  1
  C  C1140  1  0.63487052  0.80399912  0.64299256  1
  C  C1141  1  0.82726013  0.79067116  0.54488687  1
  C  C1142  1  0.92717210  0.80365827  0.66782956  1
  C  C1143  1  0.62178696  0.85565185  0.68942887  1
  C  C1144  1  0.64761008  0.84601593  0.65434952  1
  H  H1145  1  0.70416082  0.91095398  0.64794474  1
  C  C1146  1  0.92920010  0.77991518  0.69625893  1
  H  H1147  1  0.72260989  0.95493159  0.54134911  1
  C  C1148  1  0.71736739  0.83150259  0.59213977  1
  H  H1149  1  0.84803071  0.76358105  0.55940455  1
  C  C1150  1  0.97400999  0.79954893  0.72464911  1
  O  O1151  1  0.65359463  0.88723148  0.70268487  1
  C  C1152  1  0.86848418  0.79368514  0.51224845  1
  C  C1153  1  0.75962577  0.82502111  0.55777193  1
  C  C1154  1  0.99075683  0.92034623  0.64308065  1
  C  C1155  1  0.97549933  0.88086788  0.57902594  1
  C  C1156  1  0.69079534  0.71436164  0.97656469  1
  H  H1157  1  0.82911902  0.65802127  0.93424794  1
  C  C1158  1  0.82517644  0.60055124  0.87438718  1
  C  C1159  1  0.85166931  0.63744292  0.95632278  1
  C  C1160  1  0.85014236  0.63379380  0.85358594  1
  H  H1161  1  0.86673313  0.56930880  0.87291779  1
  H  H1162  1  0.91318669  0.63124736  0.83277450  1
  C  C1163  1  0.69714740  0.67488853  0.88376164  1
  C  C1164  1  0.72826559  0.59959191  0.89782872  1
  C  C1165  1  0.77980356  0.67066391  0.85815853  1
  C  C1166  1  0.79711520  0.70746704  0.83554559  1
  O  O1167  1  0.86904603  0.69976865  0.81012533  1
  H  H1168  1  0.67752616  0.58826433  0.96293410  1
  C  C1169  1  0.65053494  0.56013813  0.94604110  1
  Cu  Cu1170  1  0.83053537  0.69903884  0.76652768  1
  C  C1171  1  0.94058266  0.60699736  0.95556653  1
  C  C1172  1  0.67262751  0.63986864  0.90291549  1
  C  C1173  1  0.67542587  0.55908119  0.91218521  1
  C  C1174  1  0.78478692  0.63934059  0.98588313  1
  C  C1175  1  0.61256731  0.52133031  0.96020087  1
  C  C1176  1  0.66150829  0.52368491  0.88955786  1
  H  H1177  1  0.68470092  0.52783931  0.86295989  1
  H  H1178  1  0.63788039  0.70354746  0.88739950  1
  C  C1179  1  0.96338590  0.57842894  0.98243820  1
  H  H1180  1  0.77673197  0.72705879  0.96677041  1
  C  C1181  1  0.68340426  0.67236497  0.98813760  1
  O  O1182  1  0.84029543  0.63816520  0.76492985  1
  H  H1183  1  0.91358083  0.72060279  0.87264764  1
  O  O1184  1  0.56733199  0.53663499  0.76554695  1
  H  H1185  1  0.99808934  0.60911852  0.93372572  1
  H  H1186  1  0.60613576  0.64104484  0.92173253  1
  C  C1187  1  0.94864167  0.73867235  0.89401003  1
  H  H1188  1  0.60459112  0.51732576  0.98674210  1
  Cu  Cu1189  1  0.51512034  0.64420830  0.75646106  1
  H  H1190  1  0.99941620  0.56489492  0.81797368  1
  O  O1191  1  0.96662357  0.73336623  0.75538229  1
  O  O1192  1  0.74461619  0.74082199  0.83942478  1
  C  C1193  1  0.59077600  0.74116936  0.97658957  1
  O  O1194  1  0.97396568  0.79422025  0.78265482  1
  C  C1195  1  0.91485790  0.88341335  0.91176507  1
  C  C1196  1  0.85679124  0.90565882  0.93732772  1
  H  H1197  1  0.60342285  0.90108983  0.85177549  1
  C  C1198  1  0.76254303  0.97666780  0.95520067  1
  N  N1199  1  0.74853581  0.82668327  0.94317717  1
  N  N1200  1  0.65332667  0.85240964  0.98904695  1
  H  H1201  1  0.84692958  0.89489806  0.96354320  1
  C  C1202  1  0.80201566  0.94654344  0.92922330  1
  H  H1203  1  0.53137818  0.98412536  0.83943461  1
  C  C1204  1  0.57580389  0.90262191  0.87804440  1
  C  C1205  1  0.92773610  0.90004268  0.87886962  1
  N  N1206  1  0.74527725  0.95859010  0.98423257  1
  C  C1207  1  0.63614641  0.87792291  0.90137821  1
  C  C1208  1  0.59128240  0.87647364  0.93392113  1
  H  H1209  1  0.77127157  0.76237242  0.90940146  1
  H  H1210  1  0.58731502  0.77596856  0.96806711  1
  C  C1211  1  0.79183285  0.95831634  0.89551396  1
  C  C1212  1  0.66239966  0.85009002  0.95747729  1
  H  H1213  1  0.85420567  0.94824906  0.84682070  1
  N  N1214  1  0.82384414  0.80552822  0.99593539  1
  C  C1215  1  0.85771445  0.93662369  0.87177791  1
  C  C1216  1  0.86879673  0.75975431  0.91578999  1
  C  C1217  1  0.96693984  0.77630216  0.75744034  1
  H  H1218  1  0.95272846  0.91685293  0.81455914  1
  H  H1219  1  0.96591052  0.85472463  0.91933946  1
  C  C1220  1  0.82531847  0.80635035  0.96330366  1
  C  C1221  1  0.91669941  0.78115286  0.94424641  1
  H  H1222  1  0.73554714  0.98411328  0.88890557  1
  H  H1223  1  0.71862453  0.85914799  0.89692349  1
