# generated using pymatgen
data_CuH14(C13O2)2
_symmetry_space_group_name_H-M   'P 1'
_cell_length_a   33.47984660
_cell_length_b   24.95210930
_cell_length_c   27.74013551
_cell_angle_alpha   90.00000000
_cell_angle_beta   90.00000000
_cell_angle_gamma   90.00000000
_symmetry_Int_Tables_number   1
_chemical_formula_structural   CuH14(C13O2)2
_chemical_formula_sum   'Cu24 H336 C624 O96'
_cell_volume   23173.90924192
_cell_formula_units_Z   24
loop_
 _symmetry_equiv_pos_site_id
 _symmetry_equiv_pos_as_xyz
  1  'x, y, z'
loop_
 _atom_site_type_symbol
 _atom_site_label
 _atom_site_symmetry_multiplicity
 _atom_site_fract_x
 _atom_site_fract_y
 _atom_site_fract_z
 _atom_site_occupancy
  H  H0  1  0.06471439  0.11088408  0.05785045  1
  C  C1  1  0.04850160  0.12706885  0.08899563  1
  C  C2  1  0.04334990  0.18303718  0.09705940  1
  C  C3  1  0.13340613  0.09264712  0.15626178  1
  H  H4  1  0.11879908  0.16621285  0.11759834  1
  C  C5  1  0.14023525  0.13659966  0.12439610  1
  C  C6  1  0.07342221  0.22077458  0.07015042  1
  C  C7  1  0.02677110  0.09329014  0.12149871  1
  C  C8  1  0.17922101  0.13931413  0.10855429  1
  C  C9  1  0.16156163  0.04667922  0.16150130  1
  H  H10  1  0.19070736  0.17232557  0.08716486  1
  C  C11  1  0.20546037  0.09581693  0.11481658  1
  H  H12  1  0.07903023  0.13208518  0.18652951  1
  C  C13  1  0.09890596  0.09668891  0.18631370  1
  H  H14  1  0.14880641  0.17244371  0.19286679  1
  C  C15  1  0.09389143  0.05312142  0.21809751  1
  C  C16  1  0.19847441  0.04711953  0.13875167  1
  H  H17  1  0.09584517  0.03680933  0.11690599  1
  C  C18  1  0.03296860  0.03170993  0.12476003  1
  C  C19  1  0.01978769  0.20320134  0.13483254  1
  H  H20  1  0.20078620  0.09934946  0.20636061  1
  H  H21  1  0.02421739  0.24502581  0.14487003  1
  C  C22  1  0.09840495  0.25540145  0.09693621  1
  H  H23  1  0.09901272  0.25213523  0.13542597  1
  O  O24  1  0.19882123  0.26216441  0.11502617  1
  C  C25  1  0.16434113  0.43828008  0.13486928  1
  C  C26  1  0.12425621  0.29409903  0.07639369  1
  H  H27  1  0.14372653  0.31583156  0.10117160  1
  H  H28  1  0.12022196  0.39310970  0.17175453  1
  C  C29  1  0.06268015  0.38509274  0.09617632  1
  C  C30  1  0.10181466  0.41745773  0.09636529  1
  C  C31  1  0.12640892  0.41288511  0.13805645  1
  C  C32  1  0.05209377  0.36031996  0.05206946  1
  C  C33  1  0.19507882  0.42828177  0.16891280  1
  H  H34  1  0.04464665  0.39363892  0.16868329  1
  H  H35  1  0.19594351  0.39281616  0.19288851  1
  C  C36  1  0.03660791  0.37576074  0.13566747  1
  C  C37  1  0.01608744  0.33104393  0.04370215  1
  C  C38  1  0.21732000  0.30414207  0.10889829  1
  O  O39  1  0.21290119  0.33418639  0.07138849  1
  C  C40  1  0.11445372  0.44244577  0.05273367  1
  H  H41  1  0.07466995  0.35872447  0.02270703  1
  C  C42  1  0.17292128  0.47952036  0.09632737  1
  C  C43  1  0.12382136  0.30078490  0.02537632  1
  H  H44  1  0.15864082  0.37459195  0.01980502  1
  H  H45  1  0.09994855  0.44386709  0.01796659  1
  C  C46  1  0.07386718  0.22404598  0.01786181  1
  H  H47  1  0.09310874  0.22395700  0.23172361  1
  C  C48  1  0.22862322  0.46187163  0.17051686  1
  C  C49  1  0.14728423  0.17583811  0.23279428  1
  C  C50  1  0.02475869  0.02151334  0.24063894  1
  H  H51  1  0.12785782  0.47927190  0.22169818  1
  C  C52  1  0.14854354  0.47575629  0.05458320  1
  Cu  Cu53  1  0.21770209  0.31194297  0.00861458  1
  C  C54  1  0.11828909  0.00495914  0.22065564  1
  C  C55  1  0.14292009  0.34322963  0.00131888  1
  C  C56  1  0.00260493  0.11217529  0.15956639  1
  C  C57  1  0.06031187  0.48799687  0.21861445  1
  C  C58  1  0.00044138  0.34895465  0.12714040  1
  C  C59  1  0.07171556  0.00706241  0.12091808  1
  H  H60  1  0.22249942  0.01487383  0.14263471  1
  C  C61  1  0.15245105  0.00257474  0.19382853  1
  C  C62  1  0.20180587  0.10947009  0.24372330  1
  C  C63  1  0.24733853  0.09968076  0.09576835  1
  H  H64  1  0.24756825  0.23397939  0.17585314  1
  C  C65  1  0.02024965  0.46375580  0.23460073  1
  C  C66  1  0.09749541  0.46151022  0.22957091  1
  C  C67  1  0.44530752  0.34594357  0.24986309  1
  Cu  Cu68  1  0.30967012  0.05854034  0.16201622  1
  C  C69  1  0.32999347  0.41831261  0.15533114  1
  C  C70  1  0.49789965  0.43086775  0.13196349  1
  C  C71  1  0.46035225  0.17973784  0.13307549  1
  C  C72  1  0.49784789  0.16136647  0.15182234  1
  C  C73  1  0.43633749  0.47874020  0.11179753  1
  H  H74  1  0.40922307  0.48520113  0.08960763  1
  C  C75  1  0.32416741  0.39359807  0.01388625  1
  C  C76  1  0.49554344  0.00743668  0.05309619  1
  C  C77  1  0.43160842  0.41566293  0.02090251  1
  H  H78  1  0.32373326  0.44679410  0.12436729  1
  C  C79  1  0.32838537  0.02415088  0.02524201  1
  C  C80  1  0.37058786  0.35400901  0.06880128  1
  C  C81  1  0.25035936  0.31280197  0.14480131  1
  C  C82  1  0.35534932  0.33500010  0.22723984  1
  C  C83  1  0.36471664  0.41974033  0.18035051  1
  C  C84  1  0.41996087  0.38979775  0.23953824  1
  O  O85  1  0.31859307  0.43268651  0.03886374  1
  H  H86  1  0.25106612  0.45173988  0.19732984  1
  O  O87  1  0.25445935  0.13769473  0.07130253  1
  H  H88  1  0.30584597  0.14842323  0.02086324  1
  H  H89  1  0.40666907  0.44185897  0.03284025  1
  C  C90  1  0.45072251  0.23506797  0.11175727  1
  H  H91  1  0.30954936  0.24901236  0.23056400  1
  O  O92  1  0.40114957  0.10536852  0.22837445  1
  H  H93  1  0.43443015  0.30466752  0.24582934  1
  H  H94  1  0.37876220  0.09516546  0.06644665  1
  C  C95  1  0.37822522  0.38022575  0.21537852  1
  C  C96  1  0.46017053  0.40264359  0.05556962  1
  C  C97  1  0.43580326  0.23030083  0.06433942  1
  H  H98  1  0.36511615  0.38867174  0.09295585  1
  C  C99  1  0.49084133  0.36568449  0.04490969  1
  H  H100  1  0.33403221  0.05815558  0.00237182  1
  C  C101  1  0.30525614  0.37214728  0.16643215  1
  C  C102  1  0.43539722  0.09040689  0.13570008  1
  C  C103  1  0.48720070  0.06386992  0.03079169  1
  C  C104  1  0.41804126  0.31991137  0.13000325  1
  C  C105  1  0.31917259  0.33049758  0.20132750  1
  C  C106  1  0.43041477  0.44401228  0.24786153  1
  C  C107  1  0.38524305  0.26736100  0.00638916  1
  C  C108  1  0.42644788  0.14504004  0.12656637  1
  C  C109  1  0.40581375  0.26907713  0.05097972  1
  H  H110  1  0.49310257  0.24986798  0.22770859  1
  H  H111  1  0.40969020  0.47635596  0.23773515  1
  C  C112  1  0.37940058  0.05648164  0.08349482  1
  C  C113  1  0.44627682  0.28129787  0.14434072  1
  H  H114  1  0.41437748  0.35632248  0.15105292  1
  C  C115  1  0.36542987  0.10356325  0.23185064  1
  C  C116  1  0.29859920  0.27988600  0.20346090  1
  H  H117  1  0.44402240  0.19765306  0.04242998  1
  H  H118  1  0.26178246  0.38346318  0.10994756  1
  C  C119  1  0.47346859  0.06956393  0.15041751  1
  O  O120  1  0.34394943  0.06002440  0.21617447  1
  C  C121  1  0.35146811  0.34983415  0.02494061  1
  O  O122  1  0.27316912  0.06307116  0.11177841  1
  C  C123  1  0.26404295  0.27216450  0.17607633  1
  H  H124  1  0.47889595  0.02643235  0.15349700  1
  C  C125  1  0.46371194  0.43694840  0.10153809  1
  H  H126  1  0.39738030  0.15744900  0.11382055  1
  C  C127  1  0.39819490  0.31404588  0.08417924  1
  C  C128  1  0.27134742  0.36038484  0.13921381  1
  H  H129  1  0.38344934  0.45561733  0.17344792  1
  H  H130  1  0.46254731  0.28306118  0.18006012  1
  O  O131  1  0.26664309  0.03871020  0.20709626  1
  C  C132  1  0.40413674  0.04751883  0.12278875  1
  C  C133  1  0.35154177  0.01661028  0.06850723  1
  H  H134  1  0.37714745  0.12567445  0.01280670  1
  C  C135  1  0.49163075  0.33613842  0.00309511  1
  H  H136  1  0.08433600  0.10309127  0.30769145  1
  C  C137  1  0.05941665  0.09717383  0.40267628  1
  H  H138  1  0.08537253  0.08239076  0.38246003  1
  H  H139  1  0.13867661  0.18859277  0.37908247  1
  C  C140  1  0.17343937  0.15417431  0.31837090  1
  H  H141  1  0.04367301  0.19599995  0.36751197  1
  C  C142  1  0.13996381  0.18380683  0.33869045  1
  C  C143  1  0.05815930  0.07979010  0.29871897  1
  C  C144  1  0.20679288  0.13602763  0.34556469  1
  C  C145  1  0.02159781  0.10443160  0.37657928  1
  C  C146  1  0.06548206  0.11313181  0.45026955  1
  C  C147  1  0.02148302  0.08265041  0.32468617  1
  H  H148  1  0.09350051  0.10467700  0.47091081  1
  C  C149  1  0.03267944  0.13791111  0.47285185  1
  C  C150  1  0.11256468  0.20803471  0.30626044  1
  H  H151  1  0.20917182  0.14841416  0.38312660  1
  C  C152  1  0.23388696  0.10321927  0.32167991  1
  O  O153  1  0.15180884  0.13860724  0.43938529  1
  H  H154  1  0.21817465  0.13062564  0.45604607  1
  C  C155  1  0.23085853  0.08757213  0.27250120  1
  C  C156  1  0.04490166  0.23536982  0.34897567  1
  C  C157  1  0.07764149  0.24698242  0.31854947  1
  C  C158  1  0.01382962  0.27483666  0.34924958  1
  C  C159  1  0.05374907  0.33712264  0.29885129  1
  C  C160  1  0.01877328  0.32568856  0.32657091  1
  C  C161  1  0.08204388  0.29593712  0.29425856  1
  C  C162  1  0.05848429  0.38922388  0.27035558  1
  H  H163  1  0.16551064  0.45701766  0.40591590  1
  H  H164  1  0.10962308  0.30185821  0.27279194  1
  C  C165  1  0.16550203  0.09907760  0.42634102  1
  C  C166  1  0.21444340  0.46325800  0.35242758  1
  C  C167  1  0.17427334  0.47384952  0.36926201  1
  H  H168  1  0.22828521  0.45333686  0.45613574  1
  H  H169  1  0.18565419  0.28119310  0.47220146  1
  C  C170  1  0.17578537  0.14883125  0.26368019  1
  C  C171  1  0.02164916  0.41542937  0.26152483  1
  C  C172  1  0.22529337  0.05257994  0.42585826  1
  C  C173  1  0.23095439  0.48698908  0.31082686  1
  H  H174  1  0.12200467  0.38884227  0.25978488  1
  C  C175  1  0.09537125  0.41146849  0.25188650  1
  C  C176  1  0.24615733  0.25323201  0.48682558  1
  H  H177  1  0.23934973  0.27704244  0.41428565  1
  C  C178  1  0.24901900  0.43115791  0.43271432  1
  C  C179  1  0.24627669  0.43343845  0.38182805  1
  O  O180  1  0.18030648  0.05709212  0.41327631  1
  C  C181  1  0.24065565  0.09674657  0.44812256  1
  C  C182  1  0.11679017  0.20614600  0.25484748  1
  C  C183  1  0.05914939  0.05021802  0.25569416  1
  C  C184  1  0.24760435  0.00779143  0.41362931  1
  H  H185  1  0.02185774  0.01250010  0.49384160  1
  H  H186  1  0.15962398  0.01940494  0.48891704  1
  C  C187  1  0.32825149  0.49536583  0.39693993  1
  H  H188  1  0.25690878  0.08055520  0.34158348  1
  H  H189  1  0.32955481  0.14405297  0.39052285  1
  C  C190  1  0.26162038  0.26161535  0.43957895  1
  H  H191  1  0.32283838  0.48511289  0.43497105  1
  C  C192  1  0.28949098  0.01151435  0.42554480  1
  H  H193  1  0.41292166  0.26020695  0.32984116  1
  C  C194  1  0.49877920  0.20141019  0.38569067  1
  C  C195  1  0.39906169  0.08006055  0.35516842  1
  C  C196  1  0.49812705  0.05911174  0.45696867  1
  C  C197  1  0.44100506  0.02048313  0.30529930  1
  C  C198  1  0.48608439  0.01844571  0.42462120  1
  C  C199  1  0.41594740  0.02616435  0.45009921  1
  C  C200  1  0.47993195  0.00415031  0.28810205  1
  C  C201  1  0.37121540  0.02002311  0.44261505  1
  H  H202  1  0.25320922  0.19887135  0.29091466  1
  C  C203  1  0.30397518  0.15436685  0.26415122  1
  C  C204  1  0.47955495  0.21584818  0.43163077  1
  C  C205  1  0.30272300  0.36380661  0.42891134  1
  C  C206  1  0.26026373  0.04439581  0.25498712  1
  C  C207  1  0.42721606  0.06430888  0.48624082  1
  H  H208  1  0.29250879  0.14246161  0.47481187  1
  C  C209  1  0.34523877  0.15041677  0.25727221  1
  C  C210  1  0.38814825  0.43073273  0.39411865  1
  H  H211  1  0.41025907  0.25495300  0.47972485  1
  C  C212  1  0.48477220  0.35511507  0.26819763  1
  H  H213  1  0.26520505  0.30012305  0.32355962  1
  H  H214  1  0.27438989  0.40815502  0.31570436  1
  C  C215  1  0.27574714  0.40336979  0.35493137  1
  C  C216  1  0.38071361  0.40899773  0.44107318  1
  O  O217  1  0.27991340  0.02190944  0.28538641  1
  C  C218  1  0.35984054  0.46883183  0.36960740  1
  H  H219  1  0.40324399  0.18450283  0.26825105  1
  C  C220  1  0.38052351  0.26879029  0.33033846  1
  H  H221  1  0.43610618  0.43846090  0.33973347  1
  C  C222  1  0.35868514  0.15984683  0.40392136  1
  C  C223  1  0.37153906  0.18965784  0.27495337  1
  C  C224  1  0.30245230  0.36815306  0.37708058  1
  H  H225  1  0.48437196  0.18404471  0.35312478  1
  C  C226  1  0.43606665  0.19754935  0.43149204  1
  H  H227  1  0.32023509  0.33352580  0.44813165  1
  C  C228  1  0.49416759  0.40865419  0.28135229  1
  C  C229  1  0.36493349  0.20065701  0.43952895  1
  C  C230  1  0.36510188  0.04609154  0.34709562  1
  C  C231  1  0.44754156  0.36661898  0.44424282  1
  C  C232  1  0.42693289  0.42092703  0.37427988  1
  C  C233  1  0.30723912  0.05976198  0.44861008  1
  H  H234  1  0.35357550  0.42016756  0.45984955  1
  C  C235  1  0.39360369  0.13163133  0.38768719  1
  H  H236  1  0.47266902  0.34298733  0.46101091  1
  C  C237  1  0.28194905  0.10400984  0.45863640  1
  C  C238  1  0.35674740  0.23288530  0.30404825  1
  H  H239  1  0.36200826  0.10310532  0.46328504  1
  C  C240  1  0.43620554  0.06736998  0.33407362  1
  C  C241  1  0.32302341  0.32109911  0.34912332  1
  C  C242  1  0.40348414  0.22191312  0.45484222  1
  C  C243  1  0.34864814  0.06511953  0.45615983  1
  C  C244  1  0.45755253  0.39441994  0.39995604  1
  H  H245  1  0.31428767  0.24960076  0.39294654  1
  H  H246  1  0.26300979  0.48458460  0.30521873  1
  C  C247  1  0.36421443  0.31163931  0.35621770  1
  H  H248  1  0.38161014  0.45391723  0.29922161  1
  C  C249  1  0.31109783  0.23657174  0.30773367  1
  H  H250  1  0.46309890  0.09193231  0.33988946  1
  H  H251  1  0.33559593  0.06022518  0.36176030  1
  H  H252  1  0.38152269  0.34176613  0.37513944  1
  C  C253  1  0.36213940  0.47968080  0.31973123  1
  C  C254  1  0.46651046  0.08160674  0.48517172  1
  H  H255  1  0.46073307  0.12724991  0.39186200  1
  C  C256  1  0.43174356  0.14947231  0.40088566  1
  C  C257  1  0.29897922  0.24020157  0.42699158  1
  C  C258  1  0.29622571  0.28615119  0.32581967  1
  C  C259  1  0.40887215  0.37733012  0.46556747  1
  C  C260  1  0.28485623  0.19695019  0.28777656  1
  C  C261  1  0.27673961  0.39684089  0.45696813  1
  C  C262  1  0.46786365  0.45159805  0.27053061  1
  C  C263  1  0.32503931  0.21578058  0.46329508  1
  H  H264  1  0.36368484  0.30581389  0.25611322  1
  H  H265  1  0.28323436  0.12274133  0.25299813  1
  C  C266  1  0.13976928  0.10909937  0.62923714  1
  C  C267  1  0.17961849  0.12411906  0.62903420  1
  C  C268  1  0.19594071  0.15920173  0.66752149  1
  O  O269  1  0.16857963  0.17722477  0.69770637  1
  O  O270  1  0.04640402  0.17023240  0.61298284  1
  H  H271  1  0.12045008  0.12063328  0.65821615  1
  C  C272  1  0.12200147  0.07901042  0.59089662  1
  H  H273  1  0.06413632  0.05972933  0.62459912  1
  C  C274  1  0.20636798  0.10715600  0.59257171  1
  C  C275  1  0.08265578  0.05678172  0.59316868  1
  Cu  Cu276  1  0.08903747  0.22244152  0.61524742  1
  C  C277  1  0.21962399  0.23937184  0.58285523  1
  H  H278  1  0.20822746  0.23671238  0.62052277  1
  H  H279  1  0.06047880  0.13953003  0.54296558  1
  H  H280  1  0.23842477  0.11420859  0.60053812  1
  O  O281  1  0.23110125  0.16761964  0.67054108  1
  C  C282  1  0.03462179  0.15028477  0.52268094  1
  C  C283  1  0.19138545  0.25445159  0.54632765  1
  O  O284  1  0.13832308  0.25512103  0.60330376  1
  O  O285  1  0.08119714  0.25486219  0.67608017  1
  C  C286  1  0.14851596  0.26606941  0.55912268  1
  O  O287  1  0.01747916  0.26810639  0.68266632  1
  C  C288  1  0.05308830  0.27924711  0.69734132  1
  H  H289  1  0.16150633  0.33702879  0.66394300  1
  C  C290  1  0.19243678  0.34086020  0.64530844  1
  H  H291  1  0.16647856  0.36011278  0.57383511  1
  C  C292  1  0.19310207  0.35604290  0.59676256  1
  C  C293  1  0.23094009  0.36042720  0.57626437  1
  C  C294  1  0.22739232  0.32842135  0.67065442  1
  C  C295  1  0.22210803  0.30581809  0.71922277  1
  C  C296  1  0.23486977  0.37569764  0.52806358  1
  C  C297  1  0.15206834  0.06544404  0.55233710  1
  C  C298  1  0.19434467  0.07618514  0.55459327  1
  C  C299  1  0.01112907  0.17792462  0.59724312  1
  O  O300  1  0.18606133  0.29598594  0.73228263  1
  H  H301  1  0.21412530  0.05828786  0.52829110  1
  C  C302  1  0.05894837  0.31537404  0.73721033  1
  C  C303  1  0.13864242  0.03480122  0.51435983  1
  C  C304  1  0.07159651  0.02737512  0.55256608  1
  O  O305  1  0.12438387  0.27780659  0.52957360  1
  Cu  Cu306  1  0.16535976  0.22674134  0.74995870  1
  C  C307  1  0.09798078  0.01938333  0.51231731  1
  H  H308  1  0.04097028  0.00991269  0.55191380  1
  C  C309  1  0.00187856  0.17372479  0.54553263  1
  H  H310  1  0.21047598  0.38102846  0.50156915  1
  H  H311  1  0.12352787  0.30877940  0.74330441  1
  C  C312  1  0.20591987  0.26388564  0.50036416  1
  H  H313  1  0.25173541  0.47499779  0.71637477  1
  C  C314  1  0.25879933  0.22310672  0.57153566  1
  C  C315  1  0.40638289  0.35514391  0.51746059  1
  C  C316  1  0.35839662  0.27412254  0.66477273  1
  H  H317  1  0.48884303  0.25070925  0.50217136  1
  H  H318  1  0.34948275  0.30946754  0.52018532  1
  C  C319  1  0.34782797  0.49686553  0.58791870  1
  C  C320  1  0.26701842  0.33725858  0.65411886  1
  C  C321  1  0.44869151  0.36254432  0.59082527  1
  H  H322  1  0.41660809  0.14862869  0.51485524  1
  C  C323  1  0.31325482  0.21261461  0.51161202  1
  H  H324  1  0.40641626  0.07545285  0.51777601  1
  C  C325  1  0.27333439  0.22767543  0.52264757  1
  C  C326  1  0.49047016  0.23482006  0.63272203  1
  C  C327  1  0.48535894  0.20045509  0.59442085  1
  C  C328  1  0.48440603  0.48978061  0.51708963  1
  C  C329  1  0.26852832  0.35955669  0.60720665  1
  H  H330  1  0.42243501  0.22152497  0.58521595  1
  C  C331  1  0.41229948  0.48743840  0.54289707  1
  C  C332  1  0.47679494  0.12565279  0.52131874  1
  C  C333  1  0.33294310  0.39231650  0.73400364  1
  H  H334  1  0.44553178  0.33340012  0.68850799  1
  C  C335  1  0.34402486  0.44841169  0.66316716  1
  C  C336  1  0.30288014  0.47039033  0.66923989  1
  H  H337  1  0.46629503  0.39238842  0.52008420  1
  C  C338  1  0.29514440  0.41692144  0.74122033  1
  C  C339  1  0.30578441  0.37855995  0.58882591  1
  C  C340  1  0.41794935  0.33289757  0.61605125  1
  H  H341  1  0.47788815  0.36730847  0.60713795  1
  H  H342  1  0.39261902  0.43716778  0.61483803  1
  H  H343  1  0.47961464  0.45575300  0.59067760  1
  C  C344  1  0.36454114  0.45997331  0.62100972  1
  C  C345  1  0.37647257  0.32367332  0.53947012  1
  H  H346  1  0.27566043  0.20360061  0.60162471  1
  C  C347  1  0.39242855  0.29565529  0.68971213  1
  H  H348  1  0.29420461  0.33143289  0.67687588  1
  H  H349  1  0.33507992  0.25505925  0.68717250  1
  C  C350  1  0.35554843  0.40709804  0.69567207  1
  C  C351  1  0.44262551  0.37197352  0.54100012  1
  C  C352  1  0.34999512  0.28629031  0.61594302  1
  C  C353  1  0.38023495  0.31658872  0.58978888  1
  H  H354  1  0.33570337  0.20239001  0.53975087  1
  C  C355  1  0.39985757  0.28530349  0.74436281  1
  C  C356  1  0.44590521  0.19614965  0.57272010  1
  H  H357  1  0.33739033  0.40510042  0.52600483  1
  C  C358  1  0.42272823  0.32052975  0.66597170  1
  C  C359  1  0.30879734  0.39426386  0.54082196  1
  C  C360  1  0.27391949  0.38817290  0.51133379  1
  H  H361  1  0.32255095  0.27348771  0.60083780  1
  H  H362  1  0.41884747  0.45344471  0.56523439  1
  C  C363  1  0.28045619  0.45732410  0.71010073  1
  H  H364  1  0.33308432  0.37868968  0.60952657  1
  H  H365  1  0.38386144  0.38424311  0.69082428  1
  H  H366  1  0.46601020  0.25693155  0.64770046  1
  C  C367  1  0.44323550  0.15824837  0.53559840  1
  C  C368  1  0.49680023  0.45797777  0.55723303  1
  O  O369  1  0.25129079  0.29382616  0.74493482  1
  C  C370  1  0.12002260  0.13497828  0.93546862  1
  C  C371  1  0.09715326  0.16300396  0.89615939  1
  C  C372  1  0.11901972  0.19795757  0.86736944  1
  H  H373  1  0.10199274  0.22123307  0.84133178  1
  C  C374  1  0.09958189  0.09483418  0.96262921  1
  C  C375  1  0.16207371  0.14676083  0.93819775  1
  C  C376  1  0.15988792  0.20781596  0.87391308  1
  C  C377  1  0.18235748  0.18371926  0.91025235  1
  O  O378  1  0.21650307  0.23996375  0.82903113  1
  C  C379  1  0.17924586  0.23983714  0.83607760  1
  H  H380  1  0.21459977  0.19334529  0.91488085  1
  C  C381  1  0.05486939  0.15740845  0.89118981  1
  C  C382  1  0.05820646  0.08825875  0.95478357  1
  H  H383  1  0.03934562  0.17950384  0.86412159  1
  O  O384  1  0.15415465  0.26001863  0.80784802  1
  H  H385  1  0.08104997  0.24087452  0.92425901  1
  C  C386  1  0.03640125  0.12141758  0.92148729  1
  H  H387  1  0.17901889  0.12577199  0.96727052  1
  C  C388  1  0.09969777  0.26897411  0.94466211  1
  O  O389  1  0.22210705  0.27728802  0.95196723  1
  O  O390  1  0.16909137  0.38408667  0.88178155  1
  H  H391  1  0.12222473  0.30860779  0.88286906  1
  C  C392  1  0.12093978  0.30681517  0.92166058  1
  C  C393  1  0.17006145  0.37937094  0.92638337  1
  C  C394  1  0.14367476  0.34174427  0.95112981  1
  O  O395  1  0.19503248  0.40491847  0.95235709  1
  C  C396  1  0.06443791  0.38190124  0.82145948  1
  H  H397  1  0.12979404  0.36539528  0.81526180  1
  C  C398  1  0.06659428  0.41932314  0.86062105  1
  H  H399  1  0.09621850  0.43088774  0.87366386  1
  C  C400  1  0.03165651  0.44336376  0.87861768  1
  C  C401  1  0.09982607  0.35723270  0.79993816  1
  C  C402  1  0.02732634  0.37554564  0.79476192  1
  C  C403  1  0.02620286  0.33911003  0.95422159  1
  C  C404  1  0.02092906  0.32041913  0.90707177  1
  H  H405  1  0.04301885  0.37530968  0.96067993  1
  C  C406  1  0.02940518  0.47186723  0.92692312  1
  Cu  Cu407  1  0.20377025  0.39144261  0.83254994  1
  H  H408  1  0.03286111  0.34139237  0.87449116  1
  O  O409  1  0.23582932  0.41726667  0.78897989  1
  H  H410  1  0.00445662  0.11772857  0.91974538  1
  C  C411  1  0.09663430  0.32573069  0.75875671  1
  Cu  Cu412  1  0.24735024  0.39299098  0.96818408  1
  C  C413  1  0.02377681  0.33995437  0.75591712  1
  C  C414  1  0.00102650  0.27027175  0.89755837  1
  C  C415  1  0.02777619  0.05402874  0.98170319  1
  H  H416  1  0.00754500  0.27275690  0.81990528  1
  C  C417  1  0.09776537  0.26297708  0.99592441  1
  H  H418  1  0.05547687  0.19487325  0.99471423  1
  Cu  Cu419  1  0.24936932  0.30147742  0.81788446  1
  H  H420  1  0.24819264  0.20517378  0.99010336  1
  C  C421  1  0.00765176  0.30973629  0.99331997  1
  H  H422  1  0.11790377  0.06836706  0.98723645  1
  H  H423  1  0.43329603  0.04206652  0.99275430  1
  C  C424  1  0.48255465  0.16577428  0.98542077  1
  O  O425  1  0.37396866  0.26408034  0.76783646  1
  C  C426  1  0.25284112  0.27570296  0.92264601  1
  H  H427  1  0.34072954  0.36111063  0.75928327  1
  H  H428  1  0.32326355  0.26035888  0.86746857  1
  C  C429  1  0.49603233  0.28513120  0.91423511  1
  O  O430  1  0.30125871  0.38256918  0.97596578  1
  C  C431  1  0.34761663  0.19534052  0.91122956  1
  O  O432  1  0.47629798  0.26706106  0.83580595  1
  H  H433  1  0.34302334  0.30742982  0.95673400  1
  C  C434  1  0.45571159  0.07327721  0.99809476  1
  C  C435  1  0.28478604  0.23679638  0.92909373  1
  C  C436  1  0.41727606  0.17187123  0.90459408  1
  H  H437  1  0.44589293  0.33042969  0.89027933  1
  C  C438  1  0.38409045  0.19538565  0.88425891  1
  Cu  Cu439  1  0.48657583  0.27639456  0.77126292  1
  C  C440  1  0.34387114  0.16434504  0.95740246  1
  C  C441  1  0.41547301  0.14368587  0.94895432  1
  C  C442  1  0.27106245  0.40018254  0.78255246  1
  C  C443  1  0.31898296  0.23417757  0.89996204  1
  C  C444  1  0.37954465  0.14068586  0.97635712  1
  C  C445  1  0.27753762  0.20186488  0.96882149  1
  H  H446  1  0.39288458  0.23725316  0.97957943  1
  C  C447  1  0.30827692  0.16745104  0.98430494  1
  C  C448  1  0.46241402  0.34962886  0.96450016  1
  H  H449  1  0.40572187  0.39184089  0.95274465  1
  C  C450  1  0.43103974  0.38712087  0.97687915  1
  C  C451  1  0.46627452  0.32154147  0.92116495  1
  C  C452  1  0.45367195  0.12509541  0.97484703  1
  H  H453  1  0.48249320  0.20475742  0.96808145  1
  H  H454  1  0.44741920  0.17866268  0.89016497  1
  O  O455  1  0.28506522  0.36300071  0.80834154  1
  O  O456  1  0.25658760  0.30680830  0.88858752  1
  H  H457  1  0.38797261  0.21516202  0.84857383  1
  C  C458  1  0.35935472  0.30760581  0.99264583  1
  O  O459  1  0.43189130  0.30621430  0.76342542  1
  C  C460  1  0.14620689  0.61806993  0.05545898  1
  C  C461  1  0.18013228  0.64190908  0.07556779  1
  H  H462  1  0.18774367  0.63313127  0.11261775  1
  C  C463  1  0.20539289  0.67281664  0.04570739  1
  C  C464  1  0.12354289  0.57884693  0.08322233  1
  Cu  Cu465  1  0.07587470  0.69432743  0.18303864  1
  O  O466  1  0.05704045  0.63857135  0.15195903  1
  H  H467  1  0.20756488  0.60289146  0.18594142  1
  H  H468  1  0.13170566  0.57103135  0.11914208  1
  C  C469  1  0.09184608  0.55329141  0.06318538  1
  H  H470  1  0.21606008  0.54121843  0.06815602  1
  C  C471  1  0.19451940  0.58316860  0.21859729  1
  H  H472  1  0.08804102  0.55890582  0.18657451  1
  C  C473  1  0.02433776  0.61511639  0.16136741  1
  O  O474  1  0.15895839  0.67307568  0.18653670  1
  C  C475  1  0.02363892  0.56320287  0.18424382  1
  C  C476  1  0.05993664  0.53817674  0.19442832  1
  Cu  Cu477  1  0.20475141  0.70115069  0.20817620  1
  H  H478  1  0.07350426  0.52519618  0.08485747  1
  C  C479  1  0.13810425  0.64116288  0.21013201  1
  C  C480  1  0.05406161  0.86147863  0.14038264  1
  C  C481  1  0.04797586  0.91706547  0.13557599  1
  H  H482  1  0.08165026  0.84145349  0.13372930  1
  H  H483  1  0.11219789  0.94112199  0.12419752  1
  C  C484  1  0.08108103  0.95352305  0.12769889  1
  O  O485  1  0.19400003  0.76837299  0.17983874  1
  O  O486  1  0.05434501  0.74666764  0.13843578  1
  C  C487  1  0.01950721  0.83001771  0.14810346  1
  C  C488  1  0.02128619  0.77147485  0.14503497  1
  H  H489  1  0.13231708  0.81837368  0.21117022  1
  H  H490  1  0.17506200  0.97115775  0.19974877  1
  C  C491  1  0.20988530  0.81194630  0.18321906  1
  H  H492  1  0.05853653  0.79556491  0.05043304  1
  C  C493  1  0.03601415  0.81549173  0.02891108  1
  O  O494  1  0.10345832  0.65446489  0.22391984  1
  C  C495  1  0.19199913  0.85351763  0.21431883  1
  H  H496  1  0.06305259  0.88977727  0.04224206  1
  C  C497  1  0.24089436  0.69587806  0.06566467  1
  C  C498  1  0.15749496  0.59746129  0.23755211  1
  C  C499  1  0.08524733  0.56126367  0.01224605  1
  C  C500  1  0.01852976  0.51518294  0.02011875  1
  H  H501  1  0.01659599  0.53502515  0.05458707  1
  H  H502  1  0.01387818  0.71414607  0.04342915  1
  C  C503  1  0.03756811  0.87108352  0.02615214  1
  H  H504  1  0.02653181  0.99287592  0.20976213  1
  H  H505  1  0.24633877  0.90337908  0.22032488  1
  C  C506  1  0.21835628  0.54712581  0.24293300  1
  C  C507  1  0.00734298  0.96373526  0.00256233  1
  C  C508  1  0.00616059  0.90057472  0.00307216  1
  C  C509  1  0.20751921  0.51243535  0.09794416  1
  H  H510  1  0.15234033  0.50625163  0.02646809  1
  O  O511  1  0.24925523  0.87179406  0.07172272  1
  C  C512  1  0.00067902  0.99738688  0.13527232  1
  O  O513  1  0.24671843  0.82195675  0.17081001  1
  O  O514  1  0.23128115  0.91855085  0.00785936  1
  O  O515  1  0.24763654  0.68623198  0.10994191  1
  H  H516  1  0.24953355  0.53932142  0.22866994  1
  C  C517  1  0.23370913  0.50151211  0.13584603  1
  C  C518  1  0.00816583  0.94170023  0.14109574  1
  C  C519  1  0.00180707  0.78830929  0.00966796  1
  H  H520  1  0.10958686  0.97250885  0.24409484  1
  C  C521  1  0.21462078  0.89662519  0.23354462  1
  C  C522  1  0.15243415  0.84762684  0.22744670  1
  C  C523  1  0.13631924  0.62735249  0.00317536  1
  C  C524  1  0.27057093  0.53629065  0.14280121  1
  H  H525  1  0.30444876  0.89744291  0.10689609  1
  C  C526  1  0.29655430  0.99008761  0.01519177  1
  C  C527  1  0.34494588  0.96894248  0.09990087  1
  Cu  Cu528  1  0.29152911  0.64873491  0.13577230  1
  C  C529  1  0.37089095  0.72368509  0.15683723  1
  C  C530  1  0.46859601  0.93520769  0.10258269  1
  H  H531  1  0.38289955  0.55516720  0.08271162  1
  O  O532  1  0.29078266  0.67390552  0.19739984  1
  H  H533  1  0.43238200  0.99281976  0.06526777  1
  C  C534  1  0.40030816  0.99870343  0.15170035  1
  C  C535  1  0.41096858  0.65062903  0.19626204  1
  C  C536  1  0.36973871  0.96194640  0.14161102  1
  H  H537  1  0.41561650  0.67779284  0.22900665  1
  H  H538  1  0.49076818  0.84892477  0.15420817  1
  O  O539  1  0.29711531  0.52167787  0.16895902  1
  C  C540  1  0.47956538  0.51573185  0.17989396  1
  C  C541  1  0.35681311  0.64993480  0.07628930  1
  O  O542  1  0.26345890  0.72532991  0.03984059  1
  C  C543  1  0.29135880  0.94577195  0.04706672  1
  C  C544  1  0.25312165  0.91134585  0.04185854  1
  Cu  Cu545  1  0.26047553  0.79952528  0.05628316  1
  O  O546  1  0.31404076  0.80048037  0.07307736  1
  C  C547  1  0.31379286  0.93480738  0.08729864  1
  C  C548  1  0.44520931  0.51534608  0.14971057  1
  C  C549  1  0.38513197  0.67183603  0.15829183  1
  H  H550  1  0.38320369  0.53768322  0.23695231  1
  H  H551  1  0.36322037  0.92959148  0.16767133  1
  C  C552  1  0.27668805  0.65351321  0.23412975  1
  H  H553  1  0.34641190  0.60964659  0.20194310  1
  H  H554  1  0.33594782  0.72388776  0.04225096  1
  H  H555  1  0.42291612  0.99620954  0.17959896  1
  C  C556  1  0.35010228  0.73808022  0.11539381  1
  O  O557  1  0.27230863  0.57798464  0.11551568  1
  H  H558  1  0.44206396  0.91220666  0.11573385  1
  H  H559  1  0.44660499  0.58508274  0.21854554  1
  C  C560  1  0.41830103  0.56509722  0.14902239  1
  H  H561  1  0.35502882  0.62746283  0.04265699  1
  H  H562  1  0.48454912  0.54471737  0.20773532  1
  O  O563  1  0.32828355  0.82330600  0.14811830  1
  C  C564  1  0.33132520  0.79188716  0.11298634  1
  C  C565  1  0.33609516  0.59048843  0.23665592  1
  H  H566  1  0.37421071  0.75128992  0.18811166  1
  C  C567  1  0.46243113  0.97880172  0.07267457  1
  C  C568  1  0.34754431  0.70366566  0.07534728  1
  Cu  Cu569  1  0.29441369  0.80828543  0.20417627  1
  C  C570  1  0.37496221  0.63144126  0.11981868  1
  C  C571  1  0.42708784  0.59983516  0.19033265  1
  C  C572  1  0.38958264  0.57853125  0.11446458  1
  O  O573  1  0.33833453  0.79359207  0.24250080  1
  C  C574  1  0.20506921  0.52011607  0.28436242  1
  C  C575  1  0.16232752  0.53257603  0.29891305  1
  H  H576  1  0.10904868  0.58332539  0.28722176  1
  C  C577  1  0.10296304  0.94401957  0.34010120  1
  C  C578  1  0.14296370  0.95662886  0.32462907  1
  C  C579  1  0.08161315  0.96847995  0.38253237  1
  C  C580  1  0.16116000  0.92529834  0.28706703  1
  C  C581  1  0.08053463  0.90345458  0.31531857  1
  H  H582  1  0.05030211  0.89438350  0.32366211  1
  C  C583  1  0.19919134  0.93392751  0.26462618  1
  C  C584  1  0.03929147  0.97300688  0.37741341  1
  H  H585  1  0.02576977  0.96764700  0.34109775  1
  C  C586  1  0.09729873  0.87134925  0.28108170  1
  C  C587  1  0.13755379  0.88093558  0.26463070  1
  H  H588  1  0.21725677  0.96950352  0.27464081  1
  C  C589  1  0.13935912  0.57064691  0.27638490  1
  C  C590  1  0.10346542  0.98401063  0.42501319  1
  H  H591  1  0.13626250  0.98311259  0.42898363  1
  C  C592  1  0.08147838  0.99621151  0.46784690  1
  H  H593  1  0.23646618  0.97663950  0.39041609  1
  H  H594  1  0.15815012  0.99327663  0.33766777  1
  H  H595  1  0.11800838  0.50928864  0.35567910  1
  C  C596  1  0.01809684  0.98623090  0.41968063  1
  C  C597  1  0.14839790  0.50559582  0.34249727  1
  C  C598  1  0.03910588  0.99864258  0.46269330  1
  H  H599  1  0.08167265  0.83767180  0.26455048  1
  O  O600  1  0.24316717  0.66731343  0.25191240  1
  H  H601  1  0.49748580  0.52919944  0.44654974  1
  C  C602  1  0.44556916  0.99884533  0.42363011  1
  C  C603  1  0.36959103  0.99943499  0.32112635  1
  C  C604  1  0.49857648  0.61143584  0.32136181  1
  C  C605  1  0.35048073  0.75236584  0.32073526  1
  C  C606  1  0.30301067  0.53083941  0.37382978  1
  H  H607  1  0.38924290  0.57799202  0.38467131  1
  C  C608  1  0.46355767  0.85899759  0.25766159  1
  H  H609  1  0.30428748  0.92832033  0.40103053  1
  C  C610  1  0.36764738  0.65659107  0.32240152  1
  H  H611  1  0.37185552  0.76205140  0.46663568  1
  C  C612  1  0.40761336  0.98214324  0.30096419  1
  H  H613  1  0.43464698  0.62452743  0.33273544  1
  C  C614  1  0.48507588  0.95331894  0.27081987  1
  H  H615  1  0.49123131  0.91038088  0.41339955  1
  H  H616  1  0.34594360  0.69391922  0.25827927  1
  H  H617  1  0.45191408  0.57591294  0.46129560  1
  C  C618  1  0.37744216  0.67462886  0.47874476  1
  H  H619  1  0.37032615  0.61590656  0.30645873  1
  H  H620  1  0.38889834  0.90074492  0.27545396  1
  C  C621  1  0.35580531  0.75920016  0.37050620  1
  H  H622  1  0.27619841  0.54711875  0.39170593  1
  H  H623  1  0.35452222  0.80004729  0.38509147  1
  O  O624  1  0.33227893  0.84078751  0.30752094  1
  C  C625  1  0.38454054  0.61875997  0.40154308  1
  C  C626  1  0.30885867  0.55009320  0.32445027  1
  C  C627  1  0.44706771  0.54349792  0.31044364  1
  H  H628  1  0.48327525  0.69316227  0.33839434  1
  C  C629  1  0.33982995  0.79774089  0.28988756  1
  H  H630  1  0.37623861  0.93630943  0.41845592  1
  C  C631  1  0.38454672  0.62556222  0.45243687  1
  C  C632  1  0.35399312  0.70030076  0.29796901  1
  C  C633  1  0.28425396  0.58849717  0.29989436  1
  C  C634  1  0.35562366  0.97016189  0.42453829  1
  H  H635  1  0.43719300  0.96939802  0.39736111  1
  C  C636  1  0.45765715  0.59570166  0.32298277  1
  C  C637  1  0.31526928  0.96726922  0.41274497  1
  C  C638  1  0.37081744  0.72056847  0.45167046  1
  C  C639  1  0.39147739  0.57382586  0.48302085  1
  C  C640  1  0.43059431  0.55350934  0.48206360  1
  H  H641  1  0.34450764  0.97428100  0.31708142  1
  C  C642  1  0.37571742  0.66385562  0.37294986  1
  H  H643  1  0.41646514  0.52867609  0.31952630  1
  C  C644  1  0.41388330  0.93107439  0.27985005  1
  H  H645  1  0.25843096  0.60811629  0.31879848  1
  C  C646  1  0.45260065  0.91640321  0.26907360  1
  C  C647  1  0.36744689  0.71491438  0.39835342  1
  C  C648  1  0.47681542  0.50767620  0.28900839  1
  C  C649  1  0.34143883  0.52317855  0.29845866  1
  C  C650  1  0.29995253  0.61060988  0.25847593  1
  O  O651  1  0.43687105  0.82791141  0.25342763  1
  C  C652  1  0.35598843  0.54979019  0.25792670  1
  C  C653  1  0.28583095  0.50568077  0.63355718  1
  C  C654  1  0.37215234  0.50839191  0.54388784  1
  H  H655  1  0.38466211  0.67599566  0.51811388  1
  H  H656  1  0.29411595  0.54115286  0.56438741  1
  H  H657  1  0.25413483  0.52144696  0.63820050  1
  H  H658  1  0.33263941  0.57510539  0.51655883  1
  C  C659  1  0.36105599  0.55176984  0.51298473  1
  C  C660  1  0.30852224  0.51893608  0.59386663  1
  C  C661  1  0.44247252  0.51062195  0.51359715  1
  H  H662  1  0.09277806  0.60574135  0.94443506  1
  H  H663  1  0.15341307  0.67439995  0.94051093  1
  C  C664  1  0.16012351  0.66726473  0.97742742  1
  H  H665  1  0.05755219  0.98024307  0.95292702  1
  H  H666  1  0.21342251  0.71302143  0.97533108  1
  C  C667  1  0.19548936  0.68646417  0.99636880  1
  C  C668  1  0.05229841  0.52398842  0.99158762  1
  C  C669  1  0.10468827  0.59984195  0.98185926  1
  C  C670  1  0.03368659  0.99653592  0.97599469  1
  H  H671  1  0.08077758  0.52517968  0.91768680  1
  C  C672  1  0.05794999  0.50890080  0.94088155  1
  H  H673  1  0.27685145  0.99694717  0.98369794  1
  C  C674  1  0.57967177  0.10101210  0.15075210  1
  C  C675  1  0.65602588  0.22211926  0.14815137  1
  H  H676  1  0.57968091  0.13981347  0.13375824  1
  H  H677  1  0.65579991  0.12834803  0.11492131  1
  C  C678  1  0.58477677  0.22543101  0.10038913  1
  C  C679  1  0.54681804  0.21729830  0.07724550  1
  H  H680  1  0.51975740  0.22195697  0.09874778  1
  C  C681  1  0.65987652  0.21757710  0.09786178  1
  C  C682  1  0.62249315  0.21720906  0.07360065  1
  H  H683  1  0.68975526  0.21493690  0.08018523  1
  H  H684  1  0.53780329  0.09397038  0.06636078  1
  C  C685  1  0.65248737  0.08629199  0.12962823  1
  C  C686  1  0.54434984  0.07690769  0.16960373  1
  C  C687  1  0.61431240  0.06759684  0.15026125  1
  H  H688  1  0.71477473  0.05967881  0.10435571  1
  H  H689  1  0.51876230  0.19345636  0.15808884  1
  C  C690  1  0.54876971  0.18959146  0.03290605  1
  C  C691  1  0.69653587  0.21446448  0.17222571  1
  O  O692  1  0.69652850  0.21381953  0.21894853  1
  C  C693  1  0.51538817  0.10304532  0.03994757  1
  C  C694  1  0.68453923  0.05200490  0.12398230  1
  C  C695  1  0.54168054  0.02479054  0.19233425  1
  C  C696  1  0.62206509  0.23651350  0.17556444  1
  O  O697  1  0.72671192  0.20325504  0.15087864  1
  C  C698  1  0.58547228  0.23989301  0.15095414  1
  H  H699  1  0.62197436  0.24498590  0.21521557  1
  H  H700  1  0.55850532  0.25468568  0.16915801  1
  C  C701  1  0.56150563  0.42189270  0.20762659  1
  H  H702  1  0.54294448  0.38691497  0.20199810  1
  C  C703  1  0.54675599  0.46990396  0.18928084  1
  C  C704  1  0.59758103  0.42175877  0.23219629  1
  C  C705  1  0.62013729  0.20488328  0.02254548  1
  C  C706  1  0.50471834  0.10569635  0.16081948  1
  H  H707  1  0.59738594  0.33494585  0.23971116  1
  C  C708  1  0.51423262  0.15257752  0.01588029  1
  H  H709  1  0.53024916  0.16130044  0.22365898  1
  C  C710  1  0.62213555  0.47202575  0.23900586  1
  H  H711  1  0.51641724  0.35988872  0.06894391  1
  H  H712  1  0.58542583  0.10442886  0.23808307  1
  C  C713  1  0.61226797  0.01214789  0.16956743  1
  H  H714  1  0.55866489  0.00929321  0.03601934  1
  H  H715  1  0.51385908  0.00950944  0.20698375  1
  H  H716  1  0.52136913  0.40177741  0.12500884  1
  C  C717  1  0.50644008  0.47439221  0.16554422  1
  C  C718  1  0.55437009  0.17590637  0.24605015  1
  C  C719  1  0.58399252  0.18354049  0.00247651  1
  C  C720  1  0.61302391  0.37256158  0.24792786  1
  H  H721  1  0.54174714  0.28200931  0.02550356  1
  C  C722  1  0.84812906  0.28902896  0.22602862  1
  H  H723  1  0.99829095  0.11612420  0.02248253  1
  H  H724  1  0.78604516  0.00389110  0.16342377  1
  H  H725  1  0.84479779  0.39403919  0.11684270  1
  C  C726  1  0.98449194  0.49278780  0.22399337  1
  C  C727  1  0.88630035  0.00397353  0.21918538  1
  C  C728  1  0.99740970  0.07344838  0.01342945  1
  C  C729  1  0.83742203  0.47556919  0.13938971  1
  C  C730  1  0.83717234  0.01262502  0.11329937  1
  C  C731  1  0.96957523  0.36225012  0.16755119  1
  C  C732  1  0.81068152  0.02944528  0.14901806  1
  C  C733  1  0.93611400  0.05982802  0.06992924  1
  C  C734  1  0.81390995  0.07829255  0.17474720  1
  O  O735  1  0.75908274  0.05981157  0.22296493  1
  H  H736  1  0.92395414  0.06865715  0.22298461  1
  H  H737  1  0.95496706  0.25764650  0.16264850  1
  C  C738  1  0.78505847  0.09460609  0.21129518  1
  H  H739  1  0.98672035  0.31162392  0.22891302  1
  C  C740  1  0.96530860  0.34115600  0.21492913  1
  O  O741  1  0.78162561  0.14271272  0.22308980  1
  H  H742  1  0.85727047  0.45137566  0.23870983  1
  C  C743  1  0.95049227  0.47036773  0.02605830  1
  C  C744  1  0.90902434  0.40170565  0.22463983  1
  C  C745  1  0.90081969  0.02850273  0.06990756  1
  C  C746  1  0.88505100  0.44743009  0.07706545  1
  H  H747  1  0.83550683  0.32917821  0.22609896  1
  C  C748  1  0.96511768  0.18466292  0.20254537  1
  C  C749  1  0.99610144  0.16882056  0.16524939  1
  C  C750  1  0.94194222  0.22946377  0.18908730  1
  H  H751  1  0.86413247  0.02684700  0.19588927  1
  H  H752  1  0.97047347  0.01197874  0.13752804  1
  C  C753  1  0.98922858  0.32561146  0.08356363  1
  O  O754  1  0.80011650  0.48200983  0.21259856  1
  H  H755  1  0.91679362  0.16177325  0.15012632  1
  C  C756  1  0.93458420  0.41753435  0.02079331  1
  C  C757  1  0.90039149  0.40582061  0.04748711  1
  C  C758  1  0.80926831  0.45132371  0.17513790  1
  H  H759  1  0.98680585  0.08399113  0.18271275  1
  O  O760  1  0.79874946  0.40602486  0.17391886  1
  C  C761  1  0.87139180  0.04544596  0.10382885  1
  H  H762  1  0.88548411  0.36517310  0.05061210  1
  H  H763  1  0.97009661  0.12842159  0.09148952  1
  C  C764  1  0.94120583  0.10875548  0.09700305  1
  C  C765  1  0.94468125  0.40404152  0.14888796  1
  H  H766  1  0.95930377  0.30830180  0.08099375  1
  H  H767  1  0.97588378  0.23842888  0.01674293  1
  C  C768  1  0.85365041  0.43590413  0.10997767  1
  C  C769  1  0.91678500  0.42911099  0.17914354  1
  C  C770  1  0.87513673  0.09648192  0.13152543  1
  H  H771  1  0.84377955  0.15298763  0.17977012  1
  H  H772  1  0.95251431  0.42097372  0.11395597  1
  H  H773  1  0.89874018  0.46356812  0.16545544  1
  C  C774  1  0.90515674  0.23441126  0.21216337  1
  H  H775  1  0.89708610  0.31496419  0.18068445  1
  C  C776  1  0.88515034  0.28432837  0.20608626  1
  C  C777  1  0.95193461  0.14505929  0.23690078  1
  C  C778  1  0.91226294  0.12472162  0.13010808  1
  C  C779  1  0.84486779  0.11318827  0.16452299  1
  C  C780  1  0.96923583  0.03981752  0.03645934  1
  C  C781  1  0.92162395  0.02671807  0.23391040  1
  C  C782  1  0.88762789  0.18757442  0.24153130  1
  H  H783  1  0.95534980  0.47289754  0.23340685  1
  C  C784  1  0.93364829  0.35849844  0.24498202  1
  C  C785  1  0.53954711  0.19865613  0.37811801  1
  C  C786  1  0.56412365  0.21623907  0.41908563  1
  O  O787  1  0.67878446  0.14859276  0.32852703  1
  Cu  Cu788  1  0.73175413  0.12436257  0.33240328  1
  H  H789  1  0.54614280  0.06143813  0.36099317  1
  H  H790  1  0.55284646  0.18154690  0.34509063  1
  C  C791  1  0.61950629  0.16111138  0.28450195  1
  C  C792  1  0.65492072  0.12874059  0.29724373  1
  Cu  Cu793  1  0.74067218  0.18578903  0.40793992  1
  C  C794  1  0.60686949  0.21105167  0.41818164  1
  H  H795  1  0.61936080  0.19222147  0.38425798  1
  C  C796  1  0.61768027  0.21300561  0.30296918  1
  H  H797  1  0.52824461  0.07549965  0.45535388  1
  C  C798  1  0.55058881  0.23027806  0.26409494  1
  O  O799  1  0.68667744  0.21383235  0.40944059  1
  H  H800  1  0.64207004  0.22193471  0.32751358  1
  C  C801  1  0.54494140  0.23467698  0.46499524  1
  C  C802  1  0.62900395  0.23441324  0.45366442  1
  C  C803  1  0.58729299  0.25011419  0.29140501  1
  C  C804  1  0.67263639  0.23655213  0.44728408  1
  H  H805  1  0.58265614  0.30610120  0.42390592  1
  C  C806  1  0.56610976  0.43591273  0.38415684  1
  C  C807  1  0.65130327  0.43470730  0.40148062  1
  C  C808  1  0.62955469  0.38677842  0.40718338  1
  C  C809  1  0.58818811  0.38860791  0.40014326  1
  C  C810  1  0.56562153  0.34008853  0.40963388  1
  H  H811  1  0.60687777  0.31546629  0.34082609  1
  C  C812  1  0.58320890  0.30168174  0.31536908  1
  C  C813  1  0.71170693  0.41374235  0.29792683  1
  H  H814  1  0.64464864  0.34874546  0.41709857  1
  O  O815  1  0.71026137  0.38162457  0.42172202  1
  C  C816  1  0.69443462  0.43178735  0.41787402  1
  C  C817  1  0.54785807  0.33053599  0.30858465  1
  H  H818  1  0.54029623  0.36608770  0.33213671  1
  O  O819  1  0.72546427  0.36685066  0.30917666  1
  O  O820  1  0.71552494  0.46827528  0.42694604  1
  O  O821  1  0.73377182  0.45361708  0.30405641  1
  C  C822  1  0.52366028  0.43639461  0.38108783  1
  H  H823  1  0.52290893  0.42099965  0.29477677  1
  H  H824  1  0.59889755  0.05498286  0.29740572  1
  O  O825  1  0.66513733  0.08728467  0.27759715  1
  C  C826  1  0.67119639  0.41407478  0.27926209  1
  C  C827  1  0.52458332  0.34095854  0.40657342  1
  H  H828  1  0.65918231  0.32731921  0.28248679  1
  C  C829  1  0.63052875  0.48184888  0.38456249  1
  C  C830  1  0.51780839  0.31381445  0.27529525  1
  H  H831  1  0.67500155  0.49896787  0.27759201  1
  C  C832  1  0.50276946  0.23723167  0.46954831  1
  H  H833  1  0.50652354  0.02951690  0.29478701  1
  H  H834  1  0.56547825  0.48865458  0.44777498  1
  C  C835  1  0.54541953  0.01590270  0.36276043  1
  C  C836  1  0.51739245  0.26237365  0.25403570  1
  O  O837  1  0.69466528  0.25640166  0.47884442  1
  Cu  Cu838  1  0.71274855  0.33435761  0.47911959  1
  C  C839  1  0.59120724  0.48232543  0.37405021  1
  C  C840  1  0.54690010  0.48205584  0.47872812  1
  H  H841  1  0.50995174  0.30501875  0.41459415  1
  C  C842  1  0.61005833  0.25984805  0.49518936  1
  C  C843  1  0.65752309  0.46487255  0.26445706  1
  C  C844  1  0.59785353  0.01052794  0.29966920  1
  C  C845  1  0.58643124  0.14468772  0.25462599  1
  H  H846  1  0.54131346  0.49799442  0.26893308  1
  H  H847  1  0.50833947  0.47291182  0.36910845  1
  C  C848  1  0.50352002  0.39090904  0.39554893  1
  C  C849  1  0.64836116  0.36831605  0.27179165  1
  H  H850  1  0.61772384  0.42736954  0.47966390  1
  Cu  Cu851  1  0.71157158  0.07225781  0.25229973  1
  Cu  Cu852  1  0.73935787  0.17683064  0.25009579  1
  C  C853  1  0.83168012  0.24788505  0.25540334  1
  C  C854  1  0.87698856  0.41876382  0.25364856  1
  H  H855  1  0.97506621  0.11693228  0.25168307  1
  C  C856  1  0.84924929  0.19613385  0.25873431  1
  H  H857  1  0.84008036  0.03066249  0.34257982  1
  O  O858  1  0.81600125  0.45602737  0.31057885  1
  Cu  Cu859  1  0.76881464  0.34489563  0.34147254  1
  C  C860  1  0.89212785  0.32343210  0.45033893  1
  C  C861  1  0.91378775  0.29208091  0.41567085  1
  C  C862  1  0.99103620  0.02456457  0.26909568  1
  C  C863  1  0.80035017  0.11384311  0.38186417  1
  H  H864  1  0.84582680  0.14905628  0.46018930  1
  Cu  Cu865  1  0.77228631  0.46451166  0.26104622  1
  C  C866  1  0.91692804  0.05906582  0.42602377  1
  C  C867  1  0.89809676  0.10116872  0.45190734  1
  C  C868  1  0.95617935  0.29471791  0.40563006  1
  C  C869  1  0.83944978  0.09353346  0.39871679  1
  C  C870  1  0.79307592  0.26134009  0.27832919  1
  O  O871  1  0.76508259  0.25957401  0.39974711  1
  C  C872  1  0.84632660  0.25390126  0.39460284  1
  H  H873  1  0.94428585  0.30620149  0.30560643  1
  O  O874  1  0.78191521  0.09551815  0.34619931  1
  H  H875  1  0.97931439  0.31922340  0.42528222  1
  H  H876  1  0.95634693  0.06152302  0.32945247  1
  H  H877  1  0.93720584  0.19672598  0.45058090  1
  C  C878  1  0.88914048  0.25049365  0.39336603  1
  C  C879  1  0.83185837  0.41314506  0.32279196  1
  H  H880  1  0.96202771  0.19669307  0.31855508  1
  H  H881  1  0.96153882  0.14093943  0.38028510  1
  O  O882  1  0.78818883  0.15330559  0.40583826  1
  H  H883  1  0.83476551  0.16873764  0.28513366  1
  C  C884  1  0.90651669  0.21651016  0.35746238  1
  C  C885  1  0.92363847  0.33571704  0.29153304  1
  C  C886  1  0.94721366  0.22193762  0.34637369  1
  O  O887  1  0.76583175  0.31555113  0.45969203  1
  C  C888  1  0.96417340  0.18193275  0.47253978  1
  C  C889  1  0.99035455  0.13321664  0.39837927  1
  H  H890  1  0.90760985  0.35621967  0.47357439  1
  H  H891  1  0.82909796  0.22798716  0.37153838  1
  O  O892  1  0.81654032  0.38136054  0.35391065  1
  C  C893  1  0.95575738  0.04271841  0.43942411  1
  H  H894  1  0.97170590  0.06609318  0.46646175  1
  C  C895  1  0.89394068  0.03172262  0.38669145  1
  C  C896  1  0.99448682  0.15274013  0.44691412  1
  C  C897  1  0.98577323  0.05423954  0.31143519  1
  C  C898  1  0.86046502  0.11707800  0.43756282  1
  H  H899  1  0.88330396  0.34230412  0.35330810  1
  O  O900  1  0.78431325  0.31002568  0.28249655  1
  C  C901  1  0.86822289  0.39638886  0.29724607  1
  O  O902  1  0.76969546  0.22317143  0.29288994  1
  C  C903  1  0.89228075  0.35491763  0.31727057  1
  C  C904  1  0.78417728  0.28843165  0.42856372  1
  H  H905  1  0.90677592  0.12108053  0.29027328  1
  H  H906  1  0.88731963  0.18567141  0.33914555  1
  H  H907  1  0.91197305  0.11901826  0.48174069  1
  C  C908  1  0.85106857  0.32445102  0.45439710  1
  C  C909  1  0.82842515  0.28945297  0.42519138  1
  C  C910  1  0.97212844  0.26053449  0.37054439  1
  C  C911  1  0.85534914  0.04853643  0.37344073  1
  C  C912  1  0.91478188  0.14704955  0.25916395  1
  H  H913  1  0.99387096  0.39369312  0.27259695  1
  H  H914  1  0.99130679  0.35013270  0.32723863  1
  H  H915  1  0.83519366  0.34910232  0.48032981  1
  H  H916  1  0.58859517  0.16383965  0.57193303  1
  C  C917  1  0.56203973  0.18405246  0.58995603  1
  C  C918  1  0.52253346  0.17369994  0.57329150  1
  C  C919  1  0.51625991  0.13256686  0.53886652  1
  C  C920  1  0.56521900  0.22118964  0.62776952  1
  H  H921  1  0.59511266  0.22727969  0.64363563  1
  C  C922  1  0.53005849  0.24501440  0.64669561  1
  C  C923  1  0.55253098  0.40222929  0.59495785  1
  H  H924  1  0.53356787  0.39232410  0.62528869  1
  C  C925  1  0.65058283  0.36020078  0.54478819  1
  H  H926  1  0.55570046  0.26464509  0.53816766  1
  C  C927  1  0.55978391  0.44607978  0.51413540  1
  C  C928  1  0.59063774  0.38122345  0.59138574  1
  H  H929  1  0.62877907  0.27907468  0.52294276  1
  C  C930  1  0.61118052  0.39026797  0.54789803  1
  C  C931  1  0.53422801  0.43065852  0.55577523  1
  O  O932  1  0.66524610  0.33812795  0.57817006  1
  O  O933  1  0.56904372  0.30286158  0.69723235  1
  C  C934  1  0.53622489  0.28665103  0.68599944  1
  C  C935  1  0.59779025  0.42146959  0.51094593  1
  H  H936  1  0.60528139  0.35834522  0.61950746  1
  O  O937  1  0.66456526  0.35749324  0.50152380  1
  H  H938  1  0.54109029  0.10898512  0.52617728  1
  C  C939  1  0.56946587  0.25388364  0.50353595  1
  O  O940  1  0.50296806  0.29975860  0.70830291  1
  O  O941  1  0.98288644  0.19086798  0.62494049  1
  Cu  Cu942  1  0.98746693  0.20566945  0.69471801  1
  C  C943  1  0.96580066  0.18943518  0.52223762  1
  H  H944  1  0.94130221  0.20569809  0.54315069  1
  H  H945  1  0.99435568  0.32930590  0.74172102  1
  H  H946  1  0.58105862  0.16495368  0.96653647  1
  H  H947  1  0.54626228  0.24494090  0.94332433  1
  C  C948  1  0.52293886  0.27349874  0.95118996  1
  C  C949  1  0.52065189  0.29508421  0.99737477  1
  O  O950  1  0.52736428  0.21978208  0.86219594  1
  C  C951  1  0.50516669  0.25566238  0.86785269  1
  H  H952  1  0.64628389  0.20602981  0.99922039  1
  C  C953  1  0.99503830  0.45571029  0.95369629  1
  C  C954  1  0.99415933  0.43856064  0.84987381  1
  H  H955  1  0.97350833  0.42582288  0.93694720  1
  C  C956  1  0.99629100  0.24835504  0.85027595  1
  C  C957  1  0.98769075  0.26095513  0.98518309  1
  H  H958  1  0.96896846  0.46616546  0.85686031  1
  C  C959  1  0.99235139  0.40610142  0.80934867  1
  H  H960  1  0.94491164  0.17163527  0.95895666  1
  C  C961  1  0.97119040  0.18025799  0.79487988  1
  C  C962  1  0.97383221  0.20297297  0.84461596  1
  H  H963  1  0.96612881  0.40608358  0.78522184  1
  C  C964  1  0.95527113  0.17348728  0.88413552  1
  C  C965  1  0.96110458  0.19101515  0.92960045  1
  O  O966  1  0.98982467  0.21132769  0.76210642  1
  O  O967  1  0.95847417  0.13667043  0.78814006  1
  C  C968  1  0.98224184  0.24006936  0.93807384  1
  H  H969  1  0.93648957  0.13793051  0.87948733  1
  C  C970  1  0.98883257  0.48021511  0.99857048  1
  H  H971  1  0.94949199  0.38800674  0.99858299  1
  H  H972  1  0.55610520  0.55262996  0.17508524  1
  O  O973  1  0.59602916  0.78922097  0.18163999  1
  C  C974  1  0.58506858  0.92565731  0.09193294  1
  C  C975  1  0.54497197  0.94276966  0.08434747  1
  C  C976  1  0.58816107  0.87942325  0.11946991  1
  C  C977  1  0.55548827  0.85339887  0.14075666  1
  H  H978  1  0.61858999  0.86185350  0.12367938  1
  C  C979  1  0.56332857  0.80449458  0.17228598  1
  H  H980  1  0.64834961  0.93611694  0.17374607  1
  H  H981  1  0.60982022  0.94785881  0.07587148  1
  O  O982  1  0.70995524  0.91009857  0.14875496  1
  C  C983  1  0.71211014  0.95636727  0.13032493  1
  C  C984  1  0.64726335  0.97784663  0.16389898  1
  O  O985  1  0.53386753  0.78036322  0.19523870  1
  H  H986  1  0.57730486  0.94904031  0.20227567  1
  C  C987  1  0.51561069  0.86936400  0.13594031  1
  Cu  Cu988  1  0.73206287  0.89410750  0.20775718  1
  H  H989  1  0.62466527  0.56016291  0.21538483  1
  C  C990  1  0.60643685  0.52130230  0.21998215  1
  C  C991  1  0.56996773  0.51965058  0.19574506  1
  C  C992  1  0.68027937  0.99800451  0.14051589  1
  C  C993  1  0.53585803  0.99084456  0.05756545  1
  O  O994  1  0.74122574  0.97174601  0.10801423  1
  C  C995  1  0.57567872  0.99341406  0.19068815  1
  C  C996  1  0.50866761  0.91620540  0.10852528  1
  O  O997  1  0.68895692  0.92277850  0.24026796  1
  H  H998  1  0.89877919  0.99194584  0.05101958  1
  H  H999  1  0.82922734  0.56023997  0.15897198  1
  C  C1000  1  0.98663521  0.54066619  0.20044108  1
  C  C1001  1  0.87789256  0.83312049  0.23428006  1
  O  O1002  1  0.99047322  0.63704198  0.15728004  1
  C  C1003  1  0.88251362  0.94561522  0.22338081  1
  C  C1004  1  0.99303606  0.73639748  0.02357148  1
  C  C1005  1  0.94487121  0.65716415  0.02149096  1
  C  C1006  1  0.80927247  0.83470357  0.20361035  1
  H  H1007  1  0.94555320  0.92435381  0.15596770  1
  Cu  Cu1008  1  0.97492187  0.68746243  0.11151187  1
  C  C1009  1  0.97566583  0.90537882  0.15256263  1
  H  H1010  1  0.82176034  0.94001003  0.18956413  1
  C  C1011  1  0.95872719  0.71014213  0.00514131  1
  C  C1012  1  0.84798320  0.86524475  0.21272861  1
  C  C1013  1  0.87714404  0.54709744  0.10709923  1
  H  H1014  1  0.95533626  0.95485625  0.05069478  1
  O  O1015  1  0.80844736  0.78828396  0.21284364  1
  O  O1016  1  0.91424430  0.63699229  0.00846965  1
  O  O1017  1  0.99120389  0.74372596  0.15171822  1
  C  C1018  1  0.98017242  0.85233147  0.15492311  1
  C  C1019  1  0.93350988  0.51343546  0.05412127  1
  H  H1020  1  0.88596019  0.58770284  0.10398278  1
  C  C1021  1  0.84670656  0.92052495  0.20702500  1
  O  O1022  1  0.77934343  0.85795061  0.18174450  1
  H  H1023  1  0.83406943  0.97325422  0.09642479  1
  H  H1024  1  0.95985132  0.56386738  0.19369652  1
  C  C1025  1  0.97588807  0.98383308  0.03099460  1
  H  H1026  1  0.94720720  0.55406682  0.04884342  1
  O  O1027  1  0.96515265  0.64243263  0.06065994  1
  H  H1028  1  0.95560086  0.82381948  0.15864334  1
  C  C1029  1  0.84725119  0.53098657  0.13761641  1
  C  C1030  1  0.89807388  0.50515023  0.07927594  1
  C  C1031  1  0.91566224  0.91302641  0.24208686  1
  H  H1032  1  0.87448010  0.78961190  0.23721455  1
  C  C1033  1  0.91392265  0.85693426  0.24706086  1
  C  C1034  1  0.57598879  0.64527240  0.32196812  1
  C  C1035  1  0.54595497  0.68197400  0.33410215  1
  C  C1036  1  0.53077735  0.57391224  0.30293494  1
  H  H1037  1  0.60736973  0.65824334  0.32421980  1
  C  C1038  1  0.56998081  0.59231688  0.30747946  1
  C  C1039  1  0.55151126  0.74100821  0.34589155  1
  C  C1040  1  0.51715636  0.52293817  0.28728397  1
  H  H1041  1  0.57694435  0.51908881  0.35947031  1
  H  H1042  1  0.59438346  0.56487970  0.29881326  1
  O  O1043  1  0.58216181  0.75431903  0.36256876  1
  H  H1044  1  0.53256487  0.85727926  0.36876972  1
  C  C1045  1  0.53840340  0.90091828  0.36335686  1
  C  C1046  1  0.60229501  0.89142857  0.31491731  1
  H  H1047  1  0.60811476  0.84941658  0.32235124  1
  C  C1048  1  0.57048968  0.92261593  0.33415330  1
  C  C1049  1  0.62733334  0.92120784  0.28522621  1
  O  O1050  1  0.52407966  0.77609946  0.33050144  1
  C  C1051  1  0.50670400  0.66453813  0.33110729  1
  C  C1052  1  0.51564555  0.99022548  0.39174177  1
  C  C1053  1  0.51450585  0.93327858  0.39111230  1
  C  C1054  1  0.62541164  0.97756804  0.27710582  1
  H  H1055  1  0.64991395  0.51735245  0.37738508  1
  C  C1056  1  0.56974180  0.98416905  0.33230035  1
  C  C1057  1  0.66250938  0.89159021  0.26367928  1
  O  O1058  1  0.66563009  0.84449555  0.26768173  1
  H  H1059  1  0.51331860  0.93596367  0.26101769  1
  H  H1060  1  0.65048260  0.99636495  0.25698611  1
  C  C1061  1  0.50831223  0.50257536  0.47639463  1
  O  O1062  1  0.50137725  0.84823890  0.25496676  1
  Cu  Cu1063  1  0.52485234  0.78203737  0.26279138  1
  C  C1064  1  0.95263036  0.99344431  0.25355644  1
  C  C1065  1  0.97299548  0.99889669  0.41567484  1
  H  H1066  1  0.93790760  0.83537571  0.26741584  1
  H  H1067  1  0.97796236  0.91539892  0.26768329  1
  H  H1068  1  0.96851128  0.93674203  0.36170072  1
  C  C1069  1  0.95184401  0.97056492  0.37696229  1
  C  C1070  1  0.91373907  0.98472977  0.36460846  1
  C  C1071  1  0.95178712  0.93882695  0.25698143  1
  H  H1072  1  0.90055269  0.95722388  0.33844884  1
  H  H1073  1  0.91364402  0.81373271  0.94198470  1
  C  C1074  1  0.93666258  0.79212811  0.96162847  1
  H  H1075  1  0.95098347  0.90110789  0.95889570  1
  C  C1076  1  0.97427894  0.87692396  0.97822397  1
  H  H1077  1  0.90966174  0.71415857  0.95576992  1
  C  C1078  1  0.97164284  0.82042873  0.97991270  1
  C  C1079  1  0.93283419  0.73781084  0.97321341  1
