# generated using pymatgen
data_ZnH14(C13O2)2
_symmetry_space_group_name_H-M   'P 1'
_cell_length_a   30.45473458
_cell_length_b   17.15439149
_cell_length_c   25.99692410
_cell_angle_alpha   90.00000000
_cell_angle_beta   90.00000000
_cell_angle_gamma   90.00000000
_symmetry_Int_Tables_number   1
_chemical_formula_structural   ZnH14(C13O2)2
_chemical_formula_sum   'Zn24 H336 C624 O96'
_cell_volume   13581.63648674
_cell_formula_units_Z   24
loop_
 _symmetry_equiv_pos_site_id
 _symmetry_equiv_pos_as_xyz
  1  'x, y, z'
loop_
 _atom_site_type_symbol
 _atom_site_label
 _atom_site_symmetry_multiplicity
 _atom_site_fract_x
 _atom_site_fract_y
 _atom_site_fract_z
 _atom_site_occupancy
  H  H0  1  0.04439278  0.27344010  0.13166977  1
  H  H1  1  0.05828734  0.38263861  0.06968535  1
  C  C2  1  0.03610972  0.35128176  0.04388135  1
  O  O3  1  0.14935833  0.39612164  0.11885216  1
  H  H4  1  0.18746927  0.27115578  0.23247000  1
  O  O5  1  0.08988600  0.42122143  0.16337968  1
  C  C6  1  0.12017471  0.43950523  0.13071793  1
  C  C7  1  0.06046529  0.05455134  0.05133415  1
  H  H8  1  0.05218895  0.11836522  0.04674807  1
  C  C9  1  0.01423665  0.29375659  0.14937099  1
  H  H10  1  0.23978667  0.44875763  0.24047926  1
  H  H11  1  0.03541381  0.01196408  0.18748713  1
  H  H12  1  0.01345117  0.45170519  0.23521782  1
  Zn  Zn13  1  0.09665997  0.43354836  0.23949379  1
  C  C14  1  0.00804616  0.30025870  0.20313496  1
  C  C15  1  0.00543433  0.04053749  0.17365668  1
  C  C16  1  0.03503972  0.01037251  0.08433028  1
  H  H17  1  0.06411767  0.24311772  0.23037912  1
  C  C18  1  0.08884324  0.01242491  0.01862560  1
  H  H19  1  0.24701875  0.24899824  0.15850020  1
  C  C20  1  0.23809809  0.49635294  0.21304166  1
  C  C21  1  0.03551004  0.27419846  0.24413178  1
  H  H22  1  0.17801004  0.02256328  0.00063182  1
  H  H23  1  0.49847867  0.24596883  0.06838490  1
  C  C24  1  0.35557577  0.45966928  0.16904897  1
  C  C25  1  0.35826756  0.22584480  0.00574040  1
  C  C26  1  0.49306225  0.30616016  0.05304706  1
  C  C27  1  0.39962610  0.12736593  0.05301904  1
  C  C28  1  0.47861608  0.30105262  0.16071950  1
  C  C29  1  0.34817326  0.08848492  0.23503362  1
  C  C30  1  0.47860319  0.09125265  0.05511556  1
  H  H31  1  0.37671643  0.04010450  0.16242273  1
  C  C32  1  0.25961253  0.28415684  0.23719517  1
  C  C33  1  0.44190070  0.10143301  0.14047164  1
  C  C34  1  0.44312989  0.31726930  0.12816820  1
  C  C35  1  0.39681813  0.27478717  0.19827735  1
  H  H36  1  0.41343183  0.12213379  0.16198153  1
  H  H37  1  0.30664824  0.39194472  0.20797769  1
  H  H38  1  0.35773540  0.39543164  0.03625508  1
  C  C39  1  0.37730443  0.06593371  0.02821590  1
  C  C40  1  0.31714093  0.25010610  0.17493711  1
  H  H41  1  0.37984387  0.41309776  0.17720993  1
  C  C42  1  0.43079913  0.24804755  0.23132603  1
  H  H43  1  0.47758209  0.08049157  0.21094153  1
  C  C44  1  0.39041435  0.20832128  0.04326677  1
  C  C45  1  0.44552102  0.42309461  0.06002353  1
  H  H46  1  0.33542645  0.14631161  0.22208274  1
  C  C47  1  0.46883445  0.46556884  0.02287396  1
  C  C48  1  0.34852658  0.27043300  0.21488844  1
  H  H49  1  0.47719080  0.10616417  0.01460736  1
  C  C50  1  0.27344388  0.25609720  0.18678566  1
  H  H51  1  0.43807369  0.46648098  0.18833509  1
  C  C52  1  0.44046675  0.10302593  0.08539690  1
  C  C53  1  0.47837076  0.07941200  0.16904234  1
  C  C54  1  0.47270487  0.26336376  0.20991678  1
  C  C55  1  0.36786992  0.03138120  0.20503566  1
  C  C56  1  0.39940797  0.30463709  0.14650763  1
  C  C57  1  0.31346950  0.44374201  0.18641196  1
  C  C58  1  0.45929537  0.34716371  0.07497294  1
  H  H59  1  0.32977306  0.23492860  0.13613852  1
  H  H60  1  0.41075411  0.25601203  0.05822022  1
  H  H61  1  0.36955530  0.31291700  0.12195460  1
  H  H62  1  0.42015890  0.45389356  0.08509380  1
  C  C63  1  0.12454837  0.16845207  0.38392225  1
  H  H64  1  0.13975851  0.16373279  0.34689448  1
  C  C65  1  0.15661089  0.33914107  0.31614924  1
  C  C66  1  0.07873425  0.16104500  0.38541296  1
  H  H67  1  0.06400486  0.14025644  0.30329283  1
  C  C68  1  0.14713814  0.19552051  0.42844662  1
  C  C69  1  0.19719731  0.20537397  0.42459585  1
  C  C70  1  0.05752058  0.17629257  0.43782698  1
  O  O71  1  0.14581764  0.35592587  0.36216323  1
  C  C72  1  0.05089364  0.14667694  0.34249091  1
  O  O73  1  0.11536805  0.42929359  0.44479535  1
  Zn  Zn74  1  0.08377085  0.40798276  0.37549301  1
  H  H75  1  0.05435918  0.27229880  0.32345361  1
  C  C76  1  0.21113063  0.27504480  0.44858734  1
  H  H77  1  0.21268506  0.10465810  0.38031914  1
  C  C78  1  0.20358355  0.32396764  0.30209674  1
  C  C79  1  0.02936312  0.29247795  0.29474066  1
  C  C80  1  0.22544893  0.15668347  0.39646149  1
  O  O81  1  0.01882408  0.34853192  0.39895134  1
  C  C82  1  0.12556984  0.21356509  0.47564805  1
  O  O83  1  0.12723153  0.33733055  0.28306648  1
  O  O84  1  0.06158688  0.45510762  0.30840944  1
  H  H85  1  0.18675905  0.31462478  0.46571614  1
  H  H86  1  0.13017524  0.38345126  0.43963745  1
  H  H87  1  0.22552538  0.38140012  0.37086355  1
  C  C88  1  0.23744411  0.35089539  0.33540021  1
  C  C89  1  0.01258465  0.16292189  0.44173216  1
  C  C90  1  0.08023089  0.20466388  0.48240881  1
  H  H91  1  0.04658939  0.48097187  0.44373118  1
  C  C92  1  0.00598256  0.13665000  0.34934343  1
  C  C93  1  0.21562605  0.29137941  0.25468155  1
  Zn  Zn94  1  0.02505769  0.37102227  0.49948582  1
  H  H95  1  0.31473480  0.03748070  0.43280933  1
  C  C96  1  0.31298735  0.13172981  0.31683512  1
  H  H97  1  0.30771558  0.37028999  0.35256270  1
  C  C98  1  0.25664724  0.29508049  0.44773989  1
  C  C99  1  0.40077325  0.12950307  0.47941878  1
  O  O100  1  0.42394364  0.36900521  0.44286068  1
  H  H101  1  0.30061982  0.18302653  0.29711151  1
  C  C102  1  0.39684858  0.35343736  0.41296761  1
  C  C103  1  0.31724310  0.04579757  0.39137820  1
  C  C104  1  0.30601123  0.41407255  0.47166207  1
  C  C105  1  0.45959216  0.08188917  0.41094848  1
  C  C106  1  0.28226045  0.34599651  0.32578585  1
  H  H107  1  0.43574205  0.05390992  0.38475996  1
  C  C108  1  0.30171377  0.11796141  0.36748380  1
  C  C109  1  0.47417934  0.17629760  0.48474739  1
  H  H110  1  0.35992056  0.31722307  0.29479549  1
  C  C111  1  0.27187157  0.17584288  0.39743637  1
  C  C112  1  0.29144881  0.31173456  0.27593910  1
  O  O113  1  0.33164640  0.49162711  0.30137058  1
  C  C114  1  0.44524735  0.12695296  0.45448087  1
  H  H115  1  0.32224909  0.25985970  0.42337135  1
  C  C116  1  0.26951973  0.36208052  0.48426619  1
  H  H117  1  0.42492443  0.21738378  0.26755724  1
  C  C118  1  0.28734872  0.24457106  0.42076210  1
  C  C119  1  0.33574888  0.29887053  0.26470165  1
  H  H120  1  0.38038014  0.00386527  0.47359475  1
  C  C121  1  0.37538632  0.06095544  0.49233742  1
  H  H122  1  0.32711422  0.40608737  0.43832959  1
  C  C123  1  0.33627297  0.07483271  0.28745384  1
  O  O124  1  0.36873932  0.34219036  0.38298676  1
  C  C125  1  0.31661198  0.47936899  0.49997721  1
  H  H126  1  0.39982916  0.25843949  0.48304183  1
  C  C127  1  0.38443088  0.20252654  0.49671261  1
  C  C128  1  0.10086536  0.31506013  0.67851942  1
  C  C129  1  0.08750968  0.25222356  0.63912953  1
  C  C130  1  0.12110322  0.21415123  0.61350889  1
  H  H131  1  0.15593308  0.23729578  0.61339814  1
  C  C132  1  0.04285404  0.23604442  0.63712771  1
  C  C133  1  0.11116505  0.14818677  0.58555288  1
  C  C134  1  0.06712353  0.12690799  0.58108741  1
  H  H135  1  0.13787177  0.11786447  0.56505567  1
  C  C136  1  0.03055740  0.17437666  0.60529628  1
  C  C137  1  0.05034493  0.06454649  0.55031649  1
  Zn  Zn138  1  0.17350456  0.12597632  0.69513946  1
  O  O139  1  0.12027064  0.35931538  0.52419049  1
  O  O140  1  0.13880580  0.34539107  0.67610438  1
  H  H141  1  0.04458712  0.05490469  0.65553463  1
  O  O142  1  0.21227399  0.16191351  0.63565455  1
  O  O143  1  0.22981948  0.28111830  0.65448624  1
  Zn  Zn144  1  0.19394291  0.32015385  0.72290770  1
  H  H145  1  0.19374292  0.43482415  0.60777193  1
  H  H146  1  0.20969835  0.34119547  0.52893608  1
  O  O147  1  0.07176851  0.33926293  0.70595130  1
  H  H148  1  0.06466273  0.20985605  0.51899029  1
  H  H149  1  0.06876117  0.45016066  0.61180995  1
  C  C150  1  0.06300510  0.45984710  0.52819154  1
  C  C151  1  0.23655958  0.22237222  0.62820578  1
  C  C152  1  0.10047450  0.41335852  0.50877638  1
  O  O153  1  0.11230750  0.08831200  0.70873260  1
  C  C154  1  0.00528595  0.04435088  0.54327322  1
  C  C155  1  0.22237456  0.46750194  0.59733394  1
  H  H156  1  0.01940294  0.26115726  0.66342686  1
  H  H157  1  0.07408079  0.02951506  0.52706942  1
  C  C158  1  0.23922072  0.37801407  0.52285705  1
  C  C159  1  0.24756206  0.44838206  0.55183427  1
  C  C160  1  0.05946204  0.48682864  0.57924992  1
  C  C161  1  0.10807721  0.01740229  0.72367186  1
  O  O162  1  0.19446657  0.20740181  0.74837689  1
  H  H163  1  0.14417809  0.22707679  0.50920687  1
  C  C164  1  0.28742717  0.49517228  0.54536362  1
  C  C165  1  0.36570707  0.30288652  0.66409043  1
  C  C166  1  0.29636868  0.28638569  0.58008362  1
  H  H167  1  0.28422371  0.34171232  0.59529855  1
  C  C168  1  0.45882802  0.28737713  0.65059820  1
  H  H169  1  0.45968048  0.20856479  0.51808330  1
  C  C170  1  0.42623752  0.22569559  0.63421005  1
  O  O171  1  0.40222629  0.49513654  0.70004331  1
  C  C172  1  0.44009862  0.15964148  0.60729285  1
  C  C173  1  0.27510312  0.21406699  0.59432624  1
  H  H174  1  0.46444116  0.40581174  0.67835346  1
  H  H175  1  0.35136339  0.33287478  0.53450745  1
  C  C176  1  0.37883480  0.23439743  0.64078083  1
  C  C177  1  0.39684290  0.36589331  0.67207643  1
  H  H178  1  0.31946833  0.00654996  0.53425538  1
  C  C179  1  0.47495308  0.02262928  0.54340484  1
  H  H180  1  0.35595734  0.18895174  0.62884707  1
  O  O181  1  0.33604989  0.44525411  0.69221228  1
  H  H182  1  0.32987854  0.31329224  0.66350078  1
  C  C183  1  0.37572454  0.43964312  0.69135120  1
  C  C184  1  0.32457014  0.13389229  0.54708661  1
  C  C185  1  0.33883147  0.06148874  0.52456305  1
  C  C186  1  0.44192043  0.35885199  0.66764749  1
  C  C187  1  0.28927952  0.13987531  0.58033294  1
  H  H188  1  0.43898116  0.03767972  0.54285601  1
  C  C189  1  0.33325175  0.28111331  0.54788109  1
  C  C190  1  0.48511786  0.13986077  0.60415007  1
  H  H191  1  0.41749634  0.11646684  0.59044683  1
  H  H192  1  0.26959819  0.08647471  0.58973665  1
  C  C193  1  0.34781904  0.20706604  0.52934923  1
  C  C194  1  0.16404363  0.13894387  0.83919898  1
  C  C195  1  0.19307598  0.27026487  0.92622223  1
  C  C196  1  0.16780235  0.33017463  0.95339277  1
  H  H197  1  0.17857988  0.21171179  0.92460388  1
  C  C198  1  0.17412575  0.42013756  0.94652997  1
  C  C199  1  0.14495115  0.10921798  0.88333949  1
  C  C200  1  0.21152067  0.44033802  0.90770260  1
  C  C201  1  0.17723805  0.08085250  0.92418709  1
  H  H202  1  0.14073457  0.16309530  0.80973606  1
  C  C203  1  0.09728140  0.11035313  0.89085827  1
  C  C204  1  0.21003171  0.14241593  0.83222485  1
  C  C205  1  0.08267189  0.08596224  0.93967995  1
  H  H206  1  0.07395105  0.13534940  0.86240472  1
  H  H207  1  0.04129764  0.26084585  0.92334476  1
  H  H208  1  0.04654664  0.07988033  0.94676306  1
  C  C209  1  0.02851117  0.27762539  0.95968623  1
  C  C210  1  0.22301696  0.08196068  0.91250348  1
  C  C211  1  0.13994593  0.47992009  0.95480309  1
  C  C212  1  0.22967796  0.38795143  0.86808072  1
  C  C213  1  0.21607277  0.30742066  0.87616440  1
  O  O214  1  0.22297151  0.41559018  0.77005066  1
  C  C215  1  0.24512668  0.40390210  0.81004386  1
  C  C216  1  0.10178808  0.44932280  0.97700671  1
  C  C217  1  0.12536760  0.31062040  0.96832210  1
  C  C218  1  0.09539611  0.36813991  0.98061190  1
  C  C219  1  0.11314801  0.05905065  0.97825359  1
  C  C220  1  0.15965896  0.05218396  0.97096339  1
  H  H221  1  0.03718760  0.45679717  0.86896204  1
  H  H222  1  0.07569501  0.49243536  0.98278094  1
  H  H223  1  0.01517378  0.17554943  0.89136716  1
  Zn  Zn224  1  0.23611005  0.35372769  0.94769624  1
  H  H225  1  0.11356838  0.25002731  0.97105371  1
  C  C226  1  0.22639661  0.17977583  0.78359218  1
  C  C227  1  0.24140990  0.11740172  0.86882163  1
  H  H228  1  0.22053057  0.27285548  0.84229220  1
  H  H229  1  0.24108081  0.04954553  0.94014025  1
  H  H230  1  0.00545693  0.42697402  0.95449485  1
  C  C231  1  0.00249808  0.48780334  0.93738584  1
  C  C232  1  0.05171940  0.32755613  0.99478994  1
  H  H233  1  0.27746913  0.11538000  0.86233962  1
  C  C234  1  0.44851709  0.00615220  0.95732576  1
  H  H235  1  0.37458136  0.07762526  0.90986042  1
  C  C236  1  0.48841982  0.03694008  0.93830144  1
  H  H237  1  0.41922669  0.04153657  0.95845192  1
  C  C238  1  0.34298841  0.28787466  0.92417544  1
  C  C239  1  0.34312800  0.08772754  0.99345803  1
  C  C240  1  0.35294128  0.38061018  0.99654598  1
  C  C241  1  0.34718198  0.44628941  0.96200215  1
  C  C242  1  0.34895027  0.42440007  0.90575457  1
  H  H243  1  0.35200394  0.45578311  0.82772887  1
  H  H244  1  0.34422111  0.33284753  0.84607163  1
  H  H245  1  0.42214366  0.32045648  0.95483103  1
  C  C246  1  0.34507013  0.34646638  0.88803335  1
  C  C247  1  0.32700430  0.02490219  0.95519473  1
  C  C248  1  0.34818170  0.03527042  0.90724826  1
  O  O249  1  0.26372970  0.18423084  0.77164812  1
  C  C250  1  0.35248920  0.30533498  0.97691417  1
  C  C251  1  0.46648546  0.18180324  0.93254009  1
  H  H252  1  0.43775931  0.17294094  0.95841354  1
  O  O253  1  0.28628323  0.41996347  0.80841151  1
  C  C254  1  0.44682122  0.38956397  0.89227247  1
  C  C255  1  0.47536573  0.39032352  0.84792029  1
  H  H256  1  0.33699431  0.22818269  0.90754147  1
  C  C257  1  0.33320143  0.16543911  0.98242448  1
  C  C258  1  0.49824921  0.25569252  0.86133668  1
  C  C259  1  0.47823314  0.46526402  0.81557256  1
  H  H260  1  0.39769999  0.02049738  0.81702333  1
  C  C261  1  0.49202776  0.11870004  0.91705281  1
  C  C262  1  0.46917138  0.25460322  0.90574963  1
  H  H263  1  0.42714193  0.44191365  0.90265346  1
  C  C264  1  0.35135656  0.48030214  0.86645117  1
  C  C265  1  0.44278063  0.32167710  0.91985281  1
  H  H266  1  0.30680975  0.17477659  0.95491937  1
  C  C267  1  0.06676757  0.70675863  0.14933888  1
  C  C268  1  0.09106635  0.65074558  0.11943424  1
  C  C269  1  0.14112991  0.61968199  0.04374274  1
  C  C270  1  0.11343775  0.67677560  0.06990932  1
  C  C271  1  0.10941256  0.75241148  0.04867077  1
  C  C272  1  0.08756580  0.80771130  0.08022361  1
  C  C273  1  0.06866677  0.78276509  0.12928613  1
  C  C274  1  0.09185783  0.57351998  0.13765441  1
  H  H275  1  0.04997240  0.69224269  0.18740932  1
  H  H276  1  0.05192957  0.81953641  0.15687023  1
  C  C277  1  0.07749368  0.89180757  0.06531501  1
  H  H278  1  0.07860841  0.55681844  0.17497846  1
  C  C279  1  0.04203719  0.92832383  0.09077282  1
  C  C280  1  0.21015030  0.56260240  0.22383083  1
  C  C281  1  0.10171590  0.93506839  0.02870076  1
  C  C282  1  0.13744587  0.54417285  0.06312479  1
  Zn  Zn283  1  0.22179340  0.55946502  0.14552737  1
  H  H284  1  0.01844040  0.73416473  0.06264424  1
  H  H285  1  0.12357298  0.76657775  0.01153364  1
  C  C286  1  0.22650153  0.63893345  0.20691957  1
  H  H287  1  0.13007789  0.90586581  0.01218033  1
  C  C288  1  0.11432833  0.51802938  0.10706556  1
  O  O289  1  0.24395708  0.59920920  0.04221323  1
  H  H290  1  0.02040233  0.90024131  0.11931359  1
  H  H291  1  0.20975436  0.69083515  0.21809645  1
  H  H292  1  0.15542641  0.50363109  0.04010600  1
  H  H293  1  0.15885873  0.63266828  0.00875837  1
  C  C294  1  0.00282604  0.51422073  0.23101537  1
  H  H295  1  0.40814220  0.70156117  0.01866706  1
  C  C296  1  0.48975277  0.53185476  0.14393566  1
  H  H297  1  0.38367159  0.99935218  0.03243937  1
  C  C298  1  0.37033366  0.95465727  0.22605181  1
  H  H299  1  0.34233141  0.54875065  0.01093593  1
  C  C300  1  0.33775837  0.77253226  0.01600494  1
  H  H301  1  0.41367324  0.88934471  0.08100406  1
  C  C302  1  0.46575140  0.63761895  0.09018789  1
  C  C303  1  0.30357439  0.71737674  0.02385642  1
  H  H304  1  0.39482137  0.66926070  0.09854875  1
  C  C305  1  0.27873464  0.50071194  0.17274459  1
  H  H306  1  0.35585791  0.78206581  0.09743371  1
  C  C307  1  0.47640091  0.68135898  0.03942801  1
  O  O308  1  0.38095424  0.81205384  0.21492207  1
  C  C309  1  0.29174088  0.57830284  0.15045752  1
  C  C310  1  0.26530956  0.64559403  0.16673469  1
  C  C311  1  0.36661884  0.53799864  0.14650487  1
  O  O312  1  0.39228498  0.89079168  0.15234332  1
  C  C313  1  0.44657791  0.51410361  0.16195372  1
  C  C314  1  0.36467547  0.80200340  0.05660628  1
  H  H315  1  0.34329448  0.65117686  0.11896938  1
  C  C316  1  0.39583394  0.86023361  0.04942746  1
  H  H317  1  0.28041881  0.70317532  0.15933867  1
  H  H318  1  0.47011086  0.79899921  0.20620500  1
  C  C319  1  0.42292186  0.63124443  0.10924563  1
  C  C320  1  0.41317530  0.56300572  0.14025668  1
  H  H321  1  0.29811370  0.68734144  0.05926017  1
  C  C322  1  0.33538949  0.59351097  0.13708114  1
  C  C323  1  0.49337794  0.83930413  0.22675427  1
  C  C324  1  0.38086384  0.87760219  0.19711268  1
  H  H325  1  0.46160568  0.52660858  0.01219871  1
  C  C326  1  0.44216055  0.70024653  0.00556576  1
  O  O327  1  0.18768239  0.58184214  0.30523966  1
  C  C328  1  0.05273686  0.64513237  0.45415464  1
  C  C329  1  0.04884729  0.72450083  0.46061147  1
  H  H330  1  0.05203179  0.76909076  0.42895612  1
  H  H331  1  0.06621009  0.61426461  0.41901759  1
  C  C332  1  0.01567833  0.56149659  0.27298150  1
  C  C333  1  0.04463214  0.58546723  0.49167467  1
  O  O334  1  0.05034282  0.56494126  0.35303069  1
  H  H335  1  0.01945696  0.67370154  0.30585825  1
  C  C336  1  0.00654642  0.63999979  0.27254120  1
  Zn  Zn337  1  0.24714866  0.61793409  0.33314003  1
  C  C338  1  0.04386868  0.52802671  0.31573441  1
  C  C339  1  0.04090750  0.50117201  0.48410670  1
  O  O340  1  0.13423616  0.54331348  0.25234621  1
  C  C341  1  0.17328506  0.55854038  0.26281087  1
  C  C342  1  0.34691494  0.99732598  0.31095638  1
  C  C343  1  0.48721785  0.99166929  0.32818601  1
  H  H344  1  0.45261410  0.98088297  0.34091753  1
  C  C345  1  0.32718870  0.52710211  0.34089749  1
  C  C346  1  0.33820623  0.81348391  0.42284480  1
  C  C347  1  0.43574211  0.66409592  0.40125001  1
  C  C348  1  0.44258272  0.61682353  0.35342309  1
  C  C349  1  0.44995977  0.91874371  0.48723170  1
  C  C350  1  0.49972300  0.55569611  0.46114591  1
  C  C351  1  0.41798205  0.83000822  0.36042415  1
  C  C352  1  0.47089757  0.70567021  0.42145430  1
  H  H353  1  0.48239632  0.90731801  0.41341609  1
  H  H354  1  0.34165579  0.92439231  0.38332161  1
  O  O355  1  0.29014551  0.53685459  0.36203019  1
  C  C356  1  0.39476083  0.66009100  0.42745168  1
  H  H357  1  0.47517558  0.55620605  0.42834415  1
  C  C358  1  0.48581814  0.61258364  0.33501817  1
  C  C359  1  0.30554528  0.73623081  0.34880053  1
  C  C360  1  0.36323856  0.94161501  0.27831813  1
  C  C361  1  0.45237837  0.89500082  0.43600435  1
  O  O362  1  0.27216793  0.71545295  0.37266951  1
  H  H363  1  0.38818222  0.68965967  0.46572292  1
  O  O364  1  0.30545463  0.71402648  0.30480176  1
  C  C365  1  0.38188259  0.78985517  0.34167714  1
  C  C366  1  0.40418435  0.57560250  0.33448638  1
  C  C367  1  0.36106091  0.61636474  0.40950580  1
  H  H368  1  0.45037060  0.82836735  0.34073072  1
  C  C369  1  0.36683960  0.57321604  0.36348445  1
  H  H370  1  0.30923409  0.80200268  0.44734212  1
  H  H371  1  0.44071342  0.89829208  0.25776426  1
  C  C372  1  0.34272359  0.78532701  0.37261009  1
  H  H373  1  0.40018132  0.55719589  0.29457721  1
  C  C374  1  0.41584317  0.85508988  0.41309557  1
  C  C375  1  0.47714112  0.89535879  0.25978613  1
  H  H376  1  0.32765334  0.61617561  0.42925188  1
  H  H377  1  0.46637323  0.74375032  0.45581001  1
  H  H378  1  0.36677426  0.88105410  0.28884708  1
  C  C379  1  0.37547747  0.84807143  0.44642638  1
  H  H380  1  0.38257982  0.75846388  0.30471250  1
  H  H381  1  0.49057976  0.56950757  0.30448979  1
  C  C382  1  0.33614136  0.98341029  0.36518702  1
  H  H383  1  0.34745984  0.51226241  0.49521167  1
  C  C384  1  0.37456737  0.87395090  0.49824965  1
  H  H385  1  0.42223820  0.62301183  0.49695835  1
  C  C386  1  0.22118122  0.75975393  0.57918879  1
  C  C387  1  0.21403825  0.77827909  0.63244029  1
  C  C388  1  0.17912523  0.74198756  0.65928143  1
  C  C389  1  0.15220511  0.68737859  0.62875411  1
  C  C390  1  0.19280735  0.71013506  0.55135950  1
  H  H391  1  0.13571827  0.63483722  0.55718258  1
  C  C392  1  0.15938042  0.67128829  0.57516554  1
  C  C393  1  0.12247794  0.63611621  0.65271283  1
  H  H394  1  0.04176827  0.90061440  0.56622094  1
  C  C395  1  0.03891292  0.61405643  0.54446274  1
  C  C396  1  0.11131525  0.64647501  0.70442923  1
  C  C397  1  0.07181237  0.96409383  0.70286714  1
  C  C398  1  0.03860883  0.84099388  0.69181938  1
  C  C399  1  0.03416549  0.69649158  0.55273141  1
  H  H400  1  0.10798337  0.59273385  0.62842076  1
  H  H401  1  0.02601486  0.72309574  0.58939366  1
  C  C402  1  0.04694988  0.56271897  0.58726286  1
  C  C403  1  0.03528074  0.76031007  0.70697586  1
  C  C404  1  0.16726958  0.75269272  0.71357824  1
  C  C405  1  0.01705655  0.89898263  0.53604179  1
  H  H406  1  0.04365820  0.57955304  0.62827020  1
  H  H407  1  0.22102916  0.52392993  0.67126475  1
  C  C408  1  0.23933930  0.51754457  0.63481895  1
  C  C409  1  0.07732767  0.59939569  0.73131426  1
  C  C410  1  0.05160049  0.54411728  0.70171256  1
  C  C411  1  0.01080238  0.86870110  0.64897935  1
  C  C412  1  0.01033256  0.95151903  0.64218190  1
  C  C413  1  0.07005048  0.88740223  0.71740807  1
  H  H414  1  0.23359114  0.82066315  0.65389020  1
  H  H415  1  0.18348745  0.79822292  0.73827012  1
  H  H416  1  0.20146803  0.69686188  0.51276023  1
  H  H417  1  0.06154256  0.51707264  0.66418528  1
  H  H418  1  0.05723264  0.73802857  0.73671846  1
  C  C419  1  0.04109338  0.99539436  0.66735025  1
  C  C420  1  0.00407750  0.71324456  0.68623892  1
  H  H421  1  0.00034229  0.65309251  0.70075763  1
  C  C422  1  0.01267530  0.51751129  0.72716761  1
  C  C423  1  0.13503584  0.70590562  0.73267321  1
  O  O424  1  0.14025802  0.99300786  0.74655216  1
  H  H425  1  0.09470473  0.86424395  0.74277425  1
  C  C426  1  0.01040067  0.82964038  0.50736635  1
  C  C427  1  0.03299603  0.74956483  0.51119652  1
  C  C428  1  0.48772033  0.59213958  0.50894690  1
  O  O429  1  0.27320733  0.61691781  0.71062239  1
  H  H430  1  0.37646698  0.94798798  0.73709934  1
  C  C431  1  0.44829444  0.62806771  0.52438323  1
  O  O432  1  0.26625698  0.78452918  0.50202638  1
  C  C433  1  0.30746834  0.85649736  0.72658371  1
  C  C434  1  0.30184793  0.55501866  0.57835707  1
  H  H435  1  0.40961443  0.93604176  0.55849922  1
  O  O436  1  0.40295666  0.75231024  0.62287318  1
  C  C437  1  0.25957979  0.78997483  0.54851689  1
  O  O438  1  0.36809958  0.71320080  0.55686653  1
  Zn  Zn439  1  0.32774274  0.77450049  0.62473917  1
  C  C440  1  0.29101645  0.61660653  0.66644424  1
  O  O441  1  0.27524151  0.80995610  0.72712872  1
  O  O442  1  0.33023368  0.86555462  0.68745428  1
  H  H443  1  0.33077992  0.59423480  0.57122840  1
  C  C444  1  0.49098327  0.96113077  0.51355351  1
  C  C445  1  0.44334135  0.66915398  0.56954115  1
  H  H446  1  0.34348190  0.86896102  0.51982804  1
  O  O447  1  0.28762731  0.82941168  0.57585394  1
  C  C448  1  0.47793814  0.67949032  0.60679934  1
  C  C449  1  0.27768600  0.56262835  0.62420937  1
  H  H450  1  0.47171031  0.71600501  0.64158992  1
  C  C451  1  0.41091485  0.91045824  0.51960652  1
  C  C452  1  0.40348042  0.71593108  0.58070161  1
  O  O453  1  0.32477981  0.65756822  0.65772788  1
  Zn  Zn454  1  0.29801669  0.50285905  0.74840359  1
  C  C455  1  0.16395319  0.71110503  0.87157882  1
  C  C456  1  0.20510145  0.69686350  0.84004364  1
  C  C457  1  0.13915413  0.64329678  0.88589955  1
  H  H458  1  0.15090851  0.58534322  0.87479174  1
  C  C459  1  0.10947694  0.79216509  0.91240875  1
  C  C460  1  0.08638847  0.72047565  0.93123065  1
  C  C461  1  0.10174348  0.64742656  0.91616111  1
  C  C462  1  0.15029964  0.78632612  0.88584839  1
  H  H463  1  0.16967256  0.83699238  0.87643306  1
  C  C464  1  0.08965486  0.86783455  0.91979923  1
  C  C465  1  0.05038218  0.87814652  0.94622978  1
  H  H466  1  0.10984688  0.91659127  0.90664339  1
  H  H467  1  0.09763555  0.63368019  0.80515025  1
  H  H468  1  0.08294217  0.59437339  0.92676893  1
  C  C469  1  0.07104718  0.60735707  0.78515898  1
  O  O470  1  0.21560815  0.63126257  0.82129388  1
  O  O471  1  0.23027568  0.75222069  0.82945989  1
  H  H472  1  0.12685859  0.70654807  0.77392031  1
  C  C473  1  0.02970325  0.80976280  0.96822732  1
  C  C474  1  0.04870476  0.73627484  0.96400595  1
  Zn  Zn475  1  0.23072521  0.53149001  0.87160976  1
  C  C476  1  0.03315239  0.57585874  0.80938337  1
  H  H477  1  0.03305835  0.68518156  0.98203516  1
  O  O478  1  0.22242725  0.61071020  0.96240190  1
  H  H479  1  0.03905495  0.93694871  0.95492638  1
  H  H480  1  0.14489776  0.54129200  0.94663713  1
  C  C481  1  0.01768004  0.57817380  0.86568633  1
  C  C482  1  0.24416869  0.62893141  0.99942606  1
  C  C483  1  0.01818906  0.50021559  0.88855091  1
  C  C484  1  0.00396158  0.52958649  0.78043309  1
  H  H485  1  0.25782762  0.70603000  0.90988250  1
  C  C486  1  0.36723699  0.98902786  0.81586549  1
  H  H487  1  0.25478831  0.88328615  0.91167517  1
  C  C488  1  0.34075995  0.99015136  0.86138835  1
  O  O489  1  0.44956681  0.51485580  0.82557483  1
  C  C490  1  0.29498761  0.96194964  0.95726485  1
  Zn  Zn491  1  0.41603779  0.56617786  0.76298464  1
  C  C492  1  0.34285821  0.58124160  0.93074119  1
  H  H493  1  0.26293806  0.85475646  0.81554578  1
  C  C494  1  0.35615200  0.95035422  0.77156438  1
  C  C495  1  0.37931032  0.86098558  0.95421800  1
  C  C496  1  0.48882051  0.66856489  0.78880102  1
  C  C497  1  0.44696330  0.92887536  0.97729133  1
  H  H498  1  0.33843147  0.64229147  0.94319164  1
  C  C499  1  0.42377480  0.70002605  0.91149019  1
  C  C500  1  0.34323331  0.52769136  0.97168369  1
  C  C501  1  0.31785076  0.77787117  0.92289859  1
  C  C502  1  0.33979631  0.60943480  0.83209331  1
  C  C503  1  0.45462715  0.69789501  0.95274033  1
  O  O504  1  0.32649726  0.67595796  0.83021305  1
  H  H505  1  0.32362281  0.79270862  0.88253336  1
  H  H506  1  0.38193773  0.88422235  0.91329433  1
  C  C507  1  0.27511812  0.69856530  0.98591448  1
  Zn  Zn508  1  0.27637555  0.70101298  0.76919560  1
  O  O509  1  0.34757762  0.57263681  0.78753491  1
  C  C510  1  0.31731397  0.90143388  0.77221891  1
  C  C511  1  0.28241947  0.72870242  0.93654244  1
  C  C512  1  0.48619352  0.88551267  0.98312241  1
  C  C513  1  0.34707487  0.56000597  0.87789473  1
  H  H514  1  0.38624416  0.70872766  0.92061018  1
  C  C515  1  0.28387193  0.92369227  0.91177581  1
  C  C516  1  0.40640579  0.88064345  0.99643811  1
  H  H517  1  0.41126972  0.68813572  0.83084429  1
  C  C518  1  0.30349461  0.93375598  0.86211236  1
  C  C519  1  0.34706096  0.80026472  0.96254567  1
  C  C520  1  0.48105965  0.67968222  0.84543430  1
  C  C521  1  0.29173594  0.89431792  0.81653529  1
  C  C522  1  0.43658779  0.68621224  0.86003898  1
  H  H523  1  0.48615092  0.82842367  0.99681112  1
  H  H524  1  0.28056336  0.94558430  0.99331207  1
  O  O525  1  0.45644255  0.66871168  0.75937350  1
  C  C526  1  0.64365805  0.30353452  0.08386114  1
  C  C527  1  0.60916396  0.35599231  0.07414151  1
  C  C528  1  0.59283636  0.36227017  0.17238399  1
  C  C529  1  0.58320850  0.38377956  0.11763158  1
  C  C530  1  0.65404176  0.28325060  0.13555998  1
  C  C531  1  0.63029394  0.31236339  0.17831360  1
  H  H532  1  0.66451901  0.28137312  0.05268671  1
  C  C533  1  0.69180276  0.22928699  0.14959404  1
  C  C534  1  0.56092709  0.38123709  0.21326203  1
  H  H535  1  0.60818055  0.14401805  0.20372172  1
  C  C536  1  0.54410892  0.20057764  0.20793754  1
  O  O537  1  0.69929254  0.21199626  0.19837082  1
  C  C538  1  0.54781211  0.43781280  0.11134442  1
  H  H539  1  0.64144313  0.29346122  0.21729894  1
  H  H540  1  0.53281215  0.17777377  0.17041999  1
  H  H541  1  0.51185864  0.30959517  0.15002190  1
  C  C542  1  0.58596120  0.18255380  0.22636375  1
  H  H543  1  0.60371352  0.37873360  0.03501640  1
  O  O544  1  0.71681988  0.20557041  0.11720454  1
  C  C545  1  0.51641674  0.05782426  0.13953902  1
  C  C546  1  0.51719708  0.06291179  0.08184609  1
  H  H547  1  0.53714280  0.46047094  0.07392814  1
  C  C548  1  0.52483152  0.46918839  0.15309641  1
  C  C549  1  0.52895281  0.43762588  0.20483217  1
  C  C550  1  0.55338710  0.04378992  0.04944315  1
  C  C551  1  0.73194284  0.38473814  0.18687187  1
  H  H552  1  0.73171301  0.33695467  0.15920781  1
  C  C553  1  0.59219325  0.01848348  0.12913116  1
  C  C554  1  0.55746822  0.03474193  0.16177256  1
  H  H555  1  0.56400296  0.03064600  0.20322852  1
  C  C556  1  0.59189830  0.02633326  0.07610114  1
  C  C557  1  0.51433935  0.24045284  0.24036417  1
  H  H558  1  0.50760886  0.45560495  0.23762439  1
  C  C559  1  0.71825314  0.37619527  0.23826578  1
  C  C560  1  0.74760838  0.45835454  0.16969615  1
  H  H561  1  0.62037322  0.00523379  0.05239540  1
  C  C562  1  0.51423896  0.34230349  0.00985741  1
  H  H563  1  0.55358660  0.04935966  0.00612717  1
  H  H564  1  0.94837408  0.47670790  0.02264034  1
  H  H565  1  0.97768794  0.49812512  0.15467098  1
  C  C566  1  0.84994773  0.24926931  0.23902203  1
  H  H567  1  0.95291577  0.06679861  0.05475410  1
  C  C568  1  0.76981005  0.46994906  0.11841871  1
  H  H569  1  0.91873764  0.38421705  0.10405853  1
  Zn  Zn570  1  0.75426342  0.19744877  0.23765919  1
  O  O571  1  0.77543060  0.41755925  0.08767581  1
  H  H572  1  0.87498950  0.14027746  0.07112819  1
  C  C573  1  0.91194046  0.16248267  0.21716405  1
  C  C574  1  0.99373486  0.32117137  0.05867991  1
  H  H575  1  0.93862805  0.24922135  0.03895294  1
  C  C576  1  0.97508195  0.07279134  0.20747646  1
  C  C577  1  0.94157415  0.35770060  0.13318549  1
  H  H578  1  0.90184985  0.38367905  0.19754256  1
  C  C579  1  0.82112194  0.02119077  0.03395858  1
  C  C580  1  0.99850380  0.04669060  0.11799901  1
  H  H581  1  0.97915321  0.07984864  0.24847180  1
  C  C582  1  0.87506217  0.19979730  0.20046879  1
  C  C583  1  0.98258377  0.32414214  0.11583204  1
  H  H584  1  0.92152552  0.15950932  0.01735811  1
  C  C585  1  0.96857698  0.27405804  0.02540158  1
  C  C586  1  0.88805208  0.14770967  0.11038365  1
  O  O587  1  0.81313345  0.27156457  0.22586294  1
  O  O588  1  0.78395817  0.08740820  0.22827521  1
  C  C589  1  0.93755750  0.11268026  0.18524243  1
  C  C590  1  0.96051261  0.07822388  0.09517453  1
  H  H591  1  0.83695604  0.21808447  0.13070014  1
  C  C592  1  0.96666702  0.33933007  0.22226593  1
  C  C593  1  0.93256674  0.35945303  0.18611214  1
  H  H594  1  0.80311630  0.05888203  0.06147112  1
  C  C595  1  0.86515358  0.19160876  0.14606668  1
  C  C596  1  0.92948562  0.11109002  0.12825204  1
  C  C597  1  0.70548831  0.25101424  0.34760230  1
  C  C598  1  0.65694544  0.24740035  0.33712421  1
  C  C599  1  0.57002847  0.25135013  0.31008204  1
  C  C600  1  0.62751526  0.28647146  0.37143479  1
  C  C601  1  0.58420119  0.28439374  0.35881182  1
  H  H602  1  0.63860567  0.31575845  0.40704834  1
  H  H603  1  0.56042176  0.30802684  0.38450819  1
  C  C604  1  0.70772460  0.44032987  0.44350785  1
  H  H605  1  0.54680949  0.05435412  0.46398446  1
  C  C606  1  0.53923608  0.10901081  0.44183184  1
  O  O607  1  0.59042653  0.11278850  0.43112296  1
  H  H608  1  0.58893697  0.16244527  0.41715862  1
  O  O609  1  0.71972080  0.28606929  0.38316673  1
  C  C610  1  0.55913715  0.06571738  0.32995387  1
  H  H611  1  0.57762119  0.11496928  0.34601261  1
  H  H612  1  0.69009279  0.37504674  0.34058046  1
  H  H613  1  0.73907972  0.40929081  0.43411380  1
  C  C614  1  0.64442630  0.20288074  0.29490585  1
  C  C615  1  0.52632162  0.26604345  0.29024545  1
  O  O616  1  0.72827102  0.20773980  0.31572519  1
  C  C617  1  0.70086901  0.43218221  0.32362112  1
  C  C618  1  0.51920722  0.17186418  0.47822070  1
  C  C619  1  0.71398507  0.44057578  0.27196987  1
  H  H620  1  0.72573879  0.28839258  0.47747500  1
  H  H621  1  0.63199980  0.03689327  0.47564141  1
  H  H622  1  0.71383938  0.01175452  0.43515812  1
  H  H623  1  0.54755548  0.49425583  0.41405505  1
  C  C624  1  0.57684937  0.02565517  0.28884322  1
  C  C625  1  0.60064516  0.21356511  0.27438212  1
  H  H626  1  0.60594412  0.04977095  0.26962055  1
  H  H627  1  0.67279261  0.17030363  0.27739552  1
  C  C628  1  0.58431232  0.47569389  0.30017016  1
  H  H629  1  0.50883037  0.32989171  0.49297310  1
  C  C630  1  0.68141225  0.48951403  0.41115309  1
  H  H631  1  0.50406860  0.29304416  0.31562404  1
  C  C632  1  0.50501910  0.08456238  0.40201747  1
  C  C633  1  0.51777630  0.04487101  0.35420034  1
  C  C634  1  0.68645642  0.43206991  0.49236387  1
  H  H635  1  0.56568830  0.34957320  0.25036556  1
  H  H636  1  0.71162987  0.31773226  0.25503465  1
  H  H637  1  0.71453883  0.03062400  0.25426814  1
  H  H638  1  0.95710477  0.01939914  0.45758660  1
  H  H639  1  0.99472931  0.16387073  0.47835483  1
  C  C640  1  0.81372995  0.24024946  0.43625196  1
  C  C641  1  0.81554688  0.40074750  0.46540026  1
  O  O642  1  0.81295766  0.09891374  0.44766339  1
  C  C643  1  0.93889064  0.13179869  0.40709740  1
  O  O644  1  0.86034737  0.25187406  0.28531901  1
  O  O645  1  0.95116758  0.37384740  0.37887084  1
  C  C646  1  0.81337105  0.30145767  0.39658844  1
  C  C647  1  0.98683025  0.14507002  0.39898562  1
  C  C648  1  0.81949410  0.37917605  0.41047978  1
  C  C649  1  0.99157343  0.33461239  0.30947163  1
  C  C650  1  0.95812549  0.35220472  0.27432382  1
  C  C651  1  0.80272411  0.04904201  0.26247742  1
  O  O652  1  0.84310296  0.05226483  0.27213611  1
  H  H653  1  0.80977226  0.28444931  0.35559854  1
  Zn  Zn654  1  0.86670510  0.15269150  0.32603270  1
  C  C655  1  0.81479408  0.25560240  0.48911921  1
  C  C656  1  0.80224715  0.47583780  0.48153019  1
  O  O657  1  0.80733723  0.14360205  0.37057936  1
  H  H658  1  0.82513010  0.41871313  0.37636444  1
  Zn  Zn659  1  0.86936130  0.09710774  0.49252954  1
  O  O660  1  0.92186855  0.13873871  0.45063706  1
  H  H661  1  0.92572473  0.37718202  0.28719410  1
  O  O662  1  0.91774630  0.10724443  0.36933179  1
  C  C663  1  0.80973968  0.15747071  0.41691488  1
  H  H664  1  0.98263437  0.12762495  0.31673945  1
  C  C665  1  0.98751975  0.35150355  0.36591691  1
  H  H666  1  0.75000431  0.15570662  0.49929456  1
  H  H667  1  0.92117262  0.16811965  0.25848838  1
  C  C668  1  0.71532160  0.26694946  0.61185471  1
  C  C669  1  0.60727850  0.33126452  0.63595447  1
  C  C670  1  0.58794982  0.29954005  0.59093701  1
  C  C671  1  0.60740420  0.22683522  0.57386864  1
  C  C672  1  0.72532045  0.24625100  0.55681226  1
  H  H673  1  0.63187969  0.29506462  0.65849243  1
  H  H674  1  0.63843125  0.20274551  0.58986383  1
  C  C675  1  0.59075311  0.40252052  0.65256070  1
  C  C676  1  0.70095421  0.39952175  0.58711680  1
  C  C677  1  0.70453238  0.34398145  0.62702892  1
  C  C678  1  0.55644637  0.34221592  0.55661396  1
  C  C679  1  0.56081465  0.44622274  0.62291792  1
  H  H680  1  0.55022162  0.17086123  0.63324437  1
  H  H681  1  0.56964322  0.08933580  0.59119482  1
  H  H682  1  0.70082451  0.35763379  0.66763521  1
  C  C683  1  0.71494982  0.20278679  0.64839539  1
  C  C684  1  0.54839731  0.05456423  0.56881391  1
  C  C685  1  0.70408642  0.37750324  0.53299243  1
  C  C686  1  0.54533881  0.41935610  0.57565031  1
  H  H687  1  0.70192943  0.46179944  0.60111918  1
  C  C688  1  0.60589841  0.44175696  0.70182007  1
  C  C689  1  0.71876567  0.30259575  0.51757994  1
  O  O690  1  0.63379284  0.40541321  0.72858778  1
  H  H691  1  0.62972792  0.45501700  0.54842692  1
  O  O692  1  0.72045500  0.08901062  0.71624807  1
  H  H693  1  0.70591015  0.21138266  0.69083339  1
  C  C694  1  0.51611215  0.19242591  0.62549998  1
  H  H695  1  0.53167106  0.31208258  0.65214432  1
  C  C696  1  0.64494601  0.46514441  0.51039622  1
  H  H697  1  0.52566248  0.45721174  0.55285957  1
  C  C698  1  0.50290041  0.06960118  0.57407647  1
  C  C699  1  0.58652936  0.19302387  0.53194444  1
  C  C700  1  0.50426993  0.26877277  0.64288586  1
  C  C701  1  0.53254969  0.30362967  0.51690467  1
  C  C702  1  0.74028490  0.17151894  0.54083282  1
  C  C703  1  0.73176679  0.13374587  0.62981635  1
  C  C704  1  0.73577852  0.07428812  0.67235512  1
  C  C705  1  0.74543643  0.11793078  0.57916593  1
  C  C706  1  0.54743754  0.22673178  0.50694435  1
  H  H707  1  0.59987481  0.13961746  0.51329842  1
  H  H708  1  0.75737576  0.05837089  0.57139788  1
  Zn  Zn709  1  0.82861386  0.01419437  0.64821718  1
  C  C710  1  0.79510399  0.48629167  0.53458497  1
  O  O711  1  0.83906149  0.02048694  0.73190440  1
  H  H712  1  0.96111275  0.18708747  0.61644563  1
  C  C713  1  0.98569095  0.15667333  0.59435500  1
  O  O714  1  0.86857305  0.16854435  0.56099564  1
  O  O715  1  0.75854003  0.01510672  0.66241488  1
  H  H716  1  0.88945238  0.17153144  0.70696837  1
  C  C717  1  0.81764571  0.33612523  0.50485702  1
  H  H718  1  0.93863691  0.44741959  0.57173207  1
  C  C719  1  0.98263181  0.46733023  0.69352523  1
  C  C720  1  0.87571003  0.16423056  0.60868563  1
  H  H721  1  0.88289539  0.43541261  0.65091778  1
  C  C722  1  0.79238878  0.47148726  0.72845561  1
  C  C723  1  0.91030349  0.29822191  0.60612525  1
  C  C724  1  0.80968555  0.34953730  0.55843633  1
  H  H725  1  0.80752870  0.29761765  0.58430179  1
  H  H726  1  0.78787882  0.23781475  0.72472614  1
  H  H727  1  0.93630780  0.08960983  0.55492257  1
  C  C728  1  0.80054465  0.42729890  0.57254868  1
  C  C729  1  0.97212466  0.09495455  0.56294830  1
  C  C730  1  0.90086595  0.22354733  0.68758719  1
  C  C731  1  0.81638050  0.34231300  0.69128074  1
  C  C732  1  0.96596554  0.40027408  0.71686856  1
  H  H733  1  0.81793392  0.20705004  0.51681206  1
  H  H734  1  0.83848201  0.30514912  0.66727140  1
  C  C735  1  0.97309958  0.48282741  0.64048931  1
  C  C736  1  0.82133528  0.42349694  0.69409652  1
  H  H737  1  0.79314060  0.43348156  0.61500074  1
  C  C738  1  0.94700028  0.43195664  0.61178480  1
  H  H739  1  0.90304479  0.29961701  0.56437410  1
  C  C740  1  0.93350267  0.35654030  0.63180903  1
  C  C741  1  0.92350119  0.27927405  0.71424027  1
  C  C742  1  0.85674871  0.46675863  0.67289584  1
  C  C743  1  0.94130753  0.34472314  0.68820068  1
  C  C744  1  0.89803007  0.23177102  0.63278112  1
  C  C745  1  0.78796142  0.30189688  0.72280930  1
  O  O746  1  0.87336408  0.10543999  0.63775740  1
  H  H747  1  0.93288224  0.08902140  0.74202209  1
  C  C748  1  0.55830083  0.42070278  0.92858340  1
  O  O749  1  0.60780519  0.40026125  0.85945712  1
  Zn  Zn750  1  0.65454030  0.43252233  0.80362953  1
  C  C751  1  0.56675632  0.34259198  0.94300993  1
  H  H752  1  0.59658762  0.31618602  0.92171789  1
  C  C753  1  0.58160102  0.44690997  0.87991421  1
  O  O754  1  0.70202989  0.34453495  0.81759374  1
  C  C755  1  0.54705675  0.30246720  0.98209808  1
  C  C756  1  0.72453710  0.30571631  0.78668079  1
  O  O757  1  0.71625657  0.23578309  0.77820658  1
  O  O758  1  0.70733204  0.08223691  0.84016931  1
  O  O759  1  0.69489292  0.12892542  0.91630294  1
  C  C760  1  0.71589556  0.08787132  0.88882614  1
  C  C761  1  0.52707988  0.46211017  0.95647468  1
  H  H762  1  0.54428003  0.19528860  0.81022466  1
  H  H763  1  0.53874282  0.07359310  0.86334487  1
  H  H764  1  0.55719245  0.24120261  0.99108424  1
  C  C765  1  0.52254792  0.19043501  0.84421722  1
  H  H766  1  0.73305645  0.45433833  0.77475985  1
  C  C767  1  0.52259234  0.12699103  0.87558950  1
  C  C768  1  0.50120245  0.42083373  0.99419805  1
  H  H769  1  0.56009020  0.01070490  0.92947903  1
  H  H770  1  0.52169879  0.34038031  0.79923098  1
  O  O771  1  0.50677190  0.47491442  0.78193248  1
  C  C772  1  0.50118861  0.32841029  0.83228350  1
  H  H773  1  0.75042846  0.09280358  0.98277841  1
  C  C774  1  0.75967934  0.42803309  0.75385339  1
  C  C775  1  0.88796425  0.04878728  0.79960562  1
  H  H776  1  0.99653315  0.14643959  0.80613966  1
  C  C777  1  0.96789658  0.17955608  0.95120138  1
  C  C778  1  0.93121096  0.07823553  0.78240517  1
  C  C779  1  0.88311745  0.04752263  0.85526435  1
  H  H780  1  0.93025315  0.27299917  0.75584412  1
  C  C781  1  0.84879068  0.06551503  0.76700310  1
  C  C782  1  0.98485208  0.15193993  0.90470702  1
  Zn  Zn783  1  0.75424625  0.12719949  0.78560068  1
  H  H784  1  0.87548186  0.06063995  0.97038141  1
  C  C785  1  0.80526643  0.00529018  0.98264516  1
  O  O786  1  0.82350555  0.12260577  0.77704704  1
  C  C787  1  0.93083689  0.14188593  0.97820902  1
  C  C788  1  0.91903065  0.06776857  0.89782790  1
  H  H789  1  0.85028488  0.04488452  0.87098362  1
  C  C790  1  0.96310151  0.09546811  0.87561842  1
  C  C791  1  0.96963590  0.10036206  0.81968805  1
  C  C792  1  0.75709671  0.03641483  0.91205325  1
  C  C793  1  0.90564663  0.09010605  0.95182706  1
  C  C794  1  0.76748241  0.04700926  0.96230925  1
  C  C795  1  0.98896230  0.24502852  0.97981508  1
  H  H796  1  0.97534965  0.49937366  0.79738335  1
  H  H797  1  0.97270277  0.38720553  0.75634307  1
  C  C798  1  0.75768439  0.34718666  0.75239819  1
  H  H799  1  0.53595357  0.59646213  0.09592402  1
  C  C800  1  0.70455347  0.77404862  0.21067421  1
  O  O801  1  0.66665760  0.75807272  0.19250511  1
  Zn  Zn802  1  0.60468067  0.81583991  0.20515778  1
  C  C803  1  0.68250424  0.82924836  0.08046247  1
  C  C804  1  0.64341812  0.84150007  0.04988620  1
  H  H805  1  0.68027301  0.81268791  0.12225895  1
  C  C806  1  0.72347531  0.84870815  0.05666632  1
  H  H807  1  0.59941045  0.78517253  0.10615049  1
  C  C808  1  0.60142612  0.82158627  0.07232687  1
  O  O809  1  0.73399518  0.79759906  0.18348918  1
  H  H810  1  0.54615547  0.69187191  0.05606865  1
  C  C811  1  0.56431667  0.84471697  0.04369967  1
  H  H812  1  0.53038975  0.83587412  0.05893268  1
  C  C813  1  0.53984680  0.83672555  0.22160484  1
  C  C814  1  0.50180026  0.59280219  0.11047329  1
  C  C815  1  0.74222953  0.52230523  0.20245457  1
  C  C816  1  0.72899451  0.87274001  0.00440750  1
  C  C817  1  0.56724627  0.89128082  0.24402303  1
  O  O818  1  0.64290436  0.98295238  0.19962587  1
  C  C819  1  0.52081451  0.69326069  0.02516922  1
  O  O820  1  0.67036655  0.98350912  0.12355781  1
  C  C821  1  0.63972913  0.99447497  0.15261750  1
  H  H822  1  0.75477187  0.57661185  0.18587773  1
  C  C823  1  0.98296416  0.54077375  0.18671575  1
  O  O824  1  0.78546082  0.53856162  0.11000337  1
  C  C825  1  0.96341189  0.74919354  0.14063396  1
  C  C826  1  0.86653554  0.52879868  0.24932299  1
  C  C827  1  0.92229586  0.88831367  0.03019930  1
  C  C828  1  0.92970068  0.59784617  0.02590369  1
  O  O829  1  0.83536543  0.52901630  0.21761257  1
  C  C830  1  0.90076384  0.58092857  0.07241290  1
  H  H831  1  0.87502299  0.99316580  0.08791176  1
  C  C832  1  0.85729858  0.97901369  0.05184038  1
  C  C833  1  0.99166970  0.77626861  0.05261658  1
  C  C834  1  0.97327444  0.66946995  0.13881653  1
  O  O835  1  0.90275763  0.51481194  0.23544326  1
  C  C836  1  0.98477317  0.67440301  0.23055069  1
  C  C837  1  0.99187108  0.82336328  0.00641470  1
  C  C838  1  0.85629779  0.78795128  0.23597364  1
  C  C839  1  0.92471651  0.84618296  0.07748979  1
  H  H840  1  0.86700792  0.91221355  0.22386777  1
  C  C841  1  0.95919366  0.79447870  0.08894873  1
  C  C842  1  0.96598185  0.75372960  0.23251544  1
  O  O843  1  0.89983401  0.51630039  0.09061755  1
  Zn  Zn844  1  0.83812212  0.59566799  0.15064620  1
  C  C845  1  0.97681721  0.62578221  0.18487074  1
  H  H846  1  0.91134724  0.72421280  0.02318566  1
  Zn  Zn847  1  0.77329169  0.83946177  0.10678166  1
  H  H848  1  0.94741635  0.85265761  0.18594467  1
  C  C849  1  0.83196697  0.77497151  0.18550220  1
  O  O850  1  0.88035073  0.63738866  0.09313275  1
  O  O851  1  0.82677124  0.82950601  0.15446078  1
  C  C852  1  0.95211721  0.53648758  0.00466599  1
  H  H853  1  0.97435701  0.64027449  0.10130864  1
  C  C854  1  0.87946516  0.92823877  0.01528426  1
  H  H855  1  0.89597946  0.84658970  0.10078671  1
  O  O856  1  0.81627362  0.70865664  0.17860305  1
  C  C857  1  0.95716141  0.79145035  0.18701317  1
  C  C858  1  0.87188602  0.86001705  0.24890911  1
  H  H859  1  0.77992327  0.78603622  0.24890892  1
  C  C860  1  0.93098097  0.67436379  0.00451339  1
  H  H861  1  0.62246457  0.71730998  0.38191849  1
  C  C862  1  0.60940102  0.84520754  0.42226318  1
  C  C863  1  0.57131929  0.81754949  0.39532649  1
  C  C864  1  0.64551786  0.89366363  0.39628327  1
  C  C865  1  0.69117387  0.88275922  0.40365539  1
  H  H866  1  0.56301468  0.84023475  0.35704550  1
  C  C867  1  0.65812890  0.71971406  0.39069048  1
  C  C868  1  0.71807677  0.92134674  0.36890469  1
  C  C869  1  0.67232251  0.69683621  0.43931667  1
  C  C870  1  0.68996343  0.74155681  0.35157238  1
  C  C871  1  0.67898414  0.74614921  0.30037278  1
  H  H872  1  0.70505279  0.84448369  0.43603795  1
  C  C873  1  0.54823203  0.75689434  0.41980579  1
  H  H874  1  0.55401111  0.63984951  0.33953602  1
  H  H875  1  0.64550957  0.73374625  0.28718746  1
  H  H876  1  0.61792784  0.55395415  0.39889173  1
  H  H877  1  0.71066221  0.62051986  0.36725171  1
  H  H878  1  0.64911283  0.67124565  0.46820765  1
  C  C879  1  0.71174868  0.57587332  0.33761773  1
  C  C880  1  0.61838229  0.83187895  0.47492195  1
  C  C881  1  0.72724726  0.58623855  0.28772394  1
  C  C882  1  0.54187843  0.52836948  0.44948687  1
  C  C883  1  0.71728763  0.70899057  0.45474124  1
  C  C884  1  0.62976852  0.92435950  0.34839872  1
  C  C885  1  0.52171216  0.65385603  0.35332055  1
  C  C886  1  0.55376023  0.95530544  0.27395173  1
  C  C887  1  0.55895738  0.73307023  0.47100858  1
  C  C888  1  0.72658765  0.52145113  0.25324834  1
  H  H889  1  0.54624728  0.89526260  0.48409857  1
  C  C890  1  0.64075054  0.52314858  0.42424418  1
  C  C891  1  0.71280397  0.76589442  0.26688971  1
  C  C892  1  0.73692337  0.74273369  0.36704331  1
  C  C893  1  0.51173519  0.70682497  0.39492075  1
  C  C894  1  0.50602294  0.94720239  0.28913598  1
  C  C895  1  0.62218008  0.50871335  0.47322609  1
  H  H896  1  0.64624725  0.85956754  0.49343863  1
  H  H897  1  0.73979936  0.64530888  0.27567409  1
  H  H898  1  0.73886181  0.56355101  0.47026334  1
  C  C899  1  0.65635294  0.95948396  0.31035462  1
  C  C900  1  0.70233071  0.95868776  0.32152484  1
  H  H901  1  0.59278685  0.92475640  0.34370411  1
  C  C902  1  0.72954485  0.99985708  0.28613396  1
  H  H903  1  0.64164647  0.97749525  0.27436733  1
  C  C904  1  0.72392275  0.99113578  0.47406211  1
  C  C905  1  0.57617389  0.54330993  0.48584257  1
  C  C906  1  0.59264693  0.77325668  0.49955112  1
  C  C907  1  0.69841499  0.50022152  0.35548813  1
  C  C908  1  0.74926742  0.73277366  0.41942382  1
  O  O909  1  0.55684092  0.50939020  0.31195450  1
  H  H910  1  0.54371871  0.68523503  0.49180947  1
  H  H911  1  0.79364197  0.52158323  0.45423608  1
  H  H912  1  0.82726004  0.62307190  0.48554715  1
  H  H913  1  0.79284803  0.57283983  0.30415047  1
  C  C914  1  0.75778927  0.77182182  0.27965313  1
  C  C915  1  0.93870724  0.59626100  0.46968130  1
  H  H916  1  0.79325100  0.98996929  0.45455450  1
  H  H917  1  0.96275889  0.99488505  0.36741395  1
  C  C918  1  0.89748730  0.61858154  0.49070531  1
  C  C919  1  0.89666818  0.80199449  0.33510021  1
  C  C920  1  0.85853238  0.61662204  0.46143551  1
  C  C921  1  0.76639827  0.92095764  0.37613407  1
  H  H922  1  0.78068878  0.88940592  0.40846738  1
  H  H923  1  0.96688686  0.58986313  0.49635719  1
  C  C924  1  0.79074759  0.95953056  0.33977819  1
  H  H925  1  0.95945555  0.78594576  0.26911426  1
  C  C926  1  0.94180725  0.57592693  0.41761604  1
  H  H927  1  0.97320422  0.55542286  0.40263080  1
  C  C928  1  0.90302725  0.57364204  0.38606668  1
  C  C929  1  0.92219005  0.93760089  0.30555591  1
  H  H930  1  0.93515511  0.53179482  0.31654386  1
  C  C931  1  0.86423319  0.54889423  0.30674606  1
  H  H932  1  0.80712980  0.76186184  0.33885716  1
  C  C933  1  0.94114847  0.94458820  0.35612938  1
  H  H934  1  0.82542085  0.96803201  0.34721712  1
  C  C935  1  0.82218807  0.56839166  0.32853834  1
  C  C936  1  0.91406693  0.81330964  0.38602508  1
  C  C937  1  0.85997208  0.59569769  0.40829563  1
  H  H938  1  0.88295491  0.67875654  0.34343692  1
  C  C939  1  0.97059155  0.96610613  0.47029745  1
  C  C940  1  0.93622467  0.88537019  0.39472069  1
  C  C941  1  0.90311381  0.55035735  0.33436790  1
  C  C942  1  0.81938849  0.59249688  0.37990531  1
  H  H943  1  0.78894690  0.61213145  0.39771433  1
  H  H944  1  0.92560957  0.98480075  0.27492964  1
  H  H945  1  0.78206874  0.74894185  0.43310338  1
  C  C946  1  0.76765305  0.97659303  0.48558416  1
  C  C947  1  0.96352160  0.89306029  0.44661940  1
  C  C948  1  0.86021984  0.72415381  0.27027234  1
  H  H949  1  0.91120201  0.77409581  0.41850335  1
  C  C950  1  0.98032184  0.82191660  0.46520371  1
  C  C951  1  0.77124933  0.75938059  0.32971850  1
  H  H952  1  0.97058656  0.76627569  0.44520277  1
  C  C953  1  0.89602093  0.86803722  0.29581105  1
  C  C954  1  0.87840384  0.72964910  0.31756887  1
  C  C955  1  0.77378035  0.99879967  0.29704716  1
  H  H956  1  0.84937629  0.66649013  0.25463649  1
  C  C957  1  0.64656095  0.68589678  0.62045082  1
  C  C958  1  0.61564718  0.71267185  0.66056095  1
  C  C959  1  0.57847866  0.76366295  0.64668395  1
  H  H960  1  0.55626968  0.79022715  0.67685201  1
  C  C961  1  0.56976448  0.77531185  0.59435754  1
  C  C962  1  0.63971991  0.70986690  0.56868647  1
  H  H963  1  0.53819100  0.80048221  0.58119037  1
  C  C964  1  0.60126840  0.75069024  0.55580541  1
  H  H965  1  0.70836535  0.61860961  0.60337748  1
  C  C966  1  0.68224478  0.63371553  0.63187017  1
  C  C967  1  0.68828825  0.60732133  0.68237628  1
  C  C968  1  0.56845003  0.58068739  0.53434141  1
  H  H969  1  0.59662774  0.60148984  0.55712616  1
  H  H970  1  0.66407109  0.69870846  0.53912669  1
  C  C971  1  0.62169025  0.68511677  0.71004421  1
  H  H972  1  0.68309991  0.86097162  0.62617947  1
  H  H973  1  0.71536732  0.56739611  0.69293925  1
  H  H974  1  0.54695414  0.64362850  0.61928546  1
  C  C975  1  0.70552469  0.92214182  0.55598199  1
  C  C976  1  0.52471057  0.60050225  0.54773980  1
  C  C977  1  0.67293228  0.89933057  0.59459796  1
  H  H978  1  0.60174242  0.90175587  0.61082069  1
  C  C979  1  0.62885770  0.92272453  0.58656390  1
  C  C980  1  0.65799504  0.63589902  0.71913295  1
  C  C981  1  0.51680757  0.64538075  0.59394458  1
  H  H982  1  0.71798460  0.72332013  0.68244817  1
  C  C983  1  0.61531248  0.97328098  0.54460646  1
  H  H984  1  0.59823735  0.70438428  0.74127439  1
  C  C985  1  0.53596934  0.94286997  0.50923478  1
  H  H986  1  0.54674464  0.50258065  0.63647172  1
  O  O987  1  0.59036971  0.50468356  0.71487782  1
  C  C988  1  0.56476358  0.98963256  0.53821275  1
  C  C989  1  0.68976732  0.96967750  0.51023306  1
  H  H990  1  0.73520026  0.79041587  0.54910771  1
  C  C991  1  0.74642710  0.59893742  0.50550681  1
  C  C992  1  0.64563355  0.99819118  0.50651100  1
  C  C993  1  0.74275603  0.72892498  0.54914966  1
  C  C994  1  0.73473128  0.67972461  0.50728954  1
  C  C995  1  0.99620717  0.96669391  0.51614789  1
  C  C996  1  0.75031883  0.91963151  0.56919782  1
  H  H997  1  0.84262887  0.75843770  0.60515244  1
  H  H998  1  0.94386077  0.81205250  0.74544828  1
  C  C999  1  0.78202492  0.61259830  0.58897839  1
  C  C1000  1  0.75363758  0.73511320  0.68581161  1
  H  H1001  1  0.98993680  0.97907653  0.61227845  1
  C  C1002  1  0.91601669  0.64947020  0.65805578  1
  C  C1003  1  0.90876570  0.80571491  0.73949897  1
  H  H1004  1  0.76187626  0.89335894  0.60472098  1
  C  C1005  1  0.93901060  0.67365363  0.56766211  1
  C  C1006  1  0.78021593  0.94788477  0.53409779  1
  H  H1007  1  0.92252415  0.66146635  0.69728277  1
  C  C1008  1  0.77920927  0.73075424  0.64062062  1
  C  C1009  1  0.84436983  0.77350339  0.68866503  1
  H  H1010  1  0.98343572  0.53893423  0.62477525  1
  C  C1011  1  0.85528959  0.54828455  0.67631297  1
  H  H1012  1  0.80211140  0.58964524  0.62160468  1
  H  H1013  1  0.95699576  0.83400144  0.59541530  1
  H  H1014  1  0.95687062  0.70596819  0.53807501  1
  C  C1015  1  0.88560899  0.59529929  0.63928625  1
  C  C1016  1  0.76570314  0.68950128  0.58969775  1
  C  C1017  1  0.97586885  0.74198124  0.64647421  1
  C  C1018  1  0.83002299  0.94419943  0.54675868  1
  C  C1019  1  0.97964538  0.81657619  0.62616476  1
  H  H1020  1  0.90740195  0.79262979  0.65494266  1
  O  O1021  1  0.83952212  0.92368694  0.59239490  1
  C  C1022  1  0.94285610  0.68595483  0.62180670  1
  C  C1023  1  0.77356265  0.74981561  0.73368030  1
  C  C1024  1  0.88194485  0.57897098  0.58548549  1
  C  C1025  1  0.79181233  0.55454933  0.73428479  1
  O  O1026  1  0.85686763  0.97663455  0.51845981  1
  C  C1027  1  0.90653149  0.62501898  0.55026854  1
  C  C1028  1  0.81846023  0.77348729  0.73708395  1
  C  C1029  1  0.77464107  0.56746254  0.54403235  1
  C  C1030  1  0.82583328  0.59248512  0.70649739  1
  C  C1031  1  0.88871913  0.79421690  0.69198083  1
  C  C1032  1  0.82391646  0.75154331  0.64110996  1
  H  H1033  1  0.82692993  0.65705089  0.71322457  1
  H  H1034  1  0.85684799  0.53854943  0.57086900  1
  H  H1035  1  0.55053568  0.67728767  0.86903889  1
  O  O1036  1  0.62764893  0.62802679  0.80158600  1
  H  H1037  1  0.56778120  0.71167306  0.96507456  1
  C  C1038  1  0.53268463  0.70258987  0.97370050  1
  O  O1039  1  0.68484234  0.55041600  0.78590546  1
  C  C1040  1  0.51462804  0.68408009  0.88158615  1
  Zn  Zn1041  1  0.56512488  0.55832047  0.78338597  1
  O  O1042  1  0.52674259  0.65469155  0.77074706  1
  C  C1043  1  0.60982656  0.90005809  0.96927475  1
  C  C1044  1  0.52726896  0.92054033  0.96954138  1
  C  C1045  1  0.65785523  0.60361034  0.77250073  1
  H  H1046  1  0.61116768  0.92068294  0.93022997  1
  H  H1047  1  0.69684847  0.90453389  0.93598810  1
  C  C1048  1  0.69104174  0.88270332  0.97470304  1
  C  C1049  1  0.56936290  0.88570118  0.99449134  1
  C  C1050  1  0.64773103  0.87688247  0.99771544  1
  C  C1051  1  0.50179460  0.69011776  0.93367165  1
  O  O1052  1  0.57297073  0.51205340  0.86214806  1
  H  H1053  1  0.51623654  0.52074685  0.94489890  1
  C  C1054  1  0.52729500  0.99124101  0.94145808  1
  H  H1055  1  0.76823038  0.58582950  0.75993501  1
  H  H1056  1  0.76151246  0.88382973  0.98855125  1
  Zn  Zn1057  1  0.94149459  0.98955077  0.83918570  1
  H  H1058  1  0.75453607  0.74252014  0.76899753  1
  C  C1059  1  0.80888107  0.93448334  0.89537383  1
  O  O1060  1  0.89172396  0.78455042  0.87625584  1
  H  H1061  1  0.96118596  0.91985520  0.96169398  1
  C  C1062  1  0.77456155  0.97786293  0.87834472  1
  H  H1063  1  0.99835292  0.70220807  0.87096636  1
  C  C1064  1  0.99722807  0.64288410  0.88794052  1
  C  C1065  1  0.97646768  0.54934766  0.96059948  1
  H  H1066  1  0.76128258  0.96994670  0.83815256  1
  C  C1067  1  0.86285813  0.91102134  0.96466413  1
  C  C1068  1  0.95249964  0.69304979  0.95846378  1
  C  C1069  1  0.88342047  0.79963509  0.78555960  1
  H  H1070  1  0.82463063  0.88713538  0.87210164  1
  C  C1071  1  0.82531510  0.95043125  0.94705164  1
  H  H1072  1  0.88246407  0.87574124  0.93854146  1
  H  H1073  1  0.82472922  0.77761819  0.82421424  1
  C  C1074  1  0.97522421  0.62922412  0.93579997  1
  C  C1075  1  0.90937274  0.80899184  0.83690316  1
  O  O1076  1  0.94637371  0.84134956  0.83807065  1
  C  C1077  1  0.84009972  0.78632423  0.78606489  1
  H  H1078  1  0.94943576  0.75114895  0.94195758  1
  C  C1079  1  0.95848805  0.88055890  0.99519000  1
