# generated using pymatgen
data_CuH2(C3O2)2
_symmetry_space_group_name_H-M   'P 1'
_cell_length_a   44.99426847
_cell_length_b   47.99075818
_cell_length_c   42.59622315
_cell_angle_alpha   90.00000000
_cell_angle_beta   90.00000000
_cell_angle_gamma   90.00000000
_symmetry_Int_Tables_number   1
_chemical_formula_structural   CuH2(C3O2)2
_chemical_formula_sum   'Cu384 H768 C2304 O1536'
_cell_volume   91978.41045262
_cell_formula_units_Z   384
loop_
 _symmetry_equiv_pos_site_id
 _symmetry_equiv_pos_as_xyz
  1  'x, y, z'
loop_
 _atom_site_type_symbol
 _atom_site_label
 _atom_site_symmetry_multiplicity
 _atom_site_fract_x
 _atom_site_fract_y
 _atom_site_fract_z
 _atom_site_occupancy
  C  C0  1  0.12620321  0.10184673  0.02898004  1
  C  C1  1  0.11307307  0.07974148  0.04809673  1
  O  O2  1  0.11598729  0.08185640  0.07776868  1
  O  O3  1  0.07361820  0.10141243  0.18220757  1
  Cu  Cu4  1  0.11139698  0.11159675  0.17001259  1
  O  O5  1  0.13064109  0.11920085  0.13199382  1
  Cu  Cu6  1  0.08650976  0.09357114  0.10556160  1
  C  C7  1  0.14187736  0.12407915  0.04254060  1
  C  C8  1  0.05475259  0.09602435  0.16150611  1
  O  O9  1  0.05859107  0.10573759  0.13371958  1
  O  O10  1  0.08584015  0.05766928  0.12408505  1
  H  H11  1  0.04551191  0.06887953  0.21418032  1
  C  C12  1  0.03207801  0.07430167  0.16603101  1
  C  C13  1  0.03142541  0.06127692  0.19520318  1
  O  O14  1  0.09983551  0.06056361  0.03427277  1
  Cu  Cu15  1  0.10573194  0.02444221  0.05497380  1
  H  H16  1  0.09924827  0.03578582  0.17435695  1
  C  C17  1  0.08076498  0.03295960  0.11382700  1
  O  O18  1  0.14182237  0.08580285  0.18085514  1
  H  H19  1  0.10825510  0.08172762  0.22481297  1
  O  O20  1  0.14194486  0.01926892  0.03547753  1
  O  O21  1  0.10765281  0.01995333  0.23134419  1
  O  O22  1  0.07797843  0.02918304  0.08452429  1
  H  H23  1  0.14484827  0.12484823  0.06816554  1
  C  C24  1  0.15499107  0.14391295  0.02298615  1
  C  C25  1  0.09288779  0.01441638  0.16607507  1
  C  C26  1  0.15122224  0.09820999  0.23411947  1
  H  H27  1  0.02586087  0.00866105  0.02946029  1
  H  H28  1  0.01378289  0.07847775  0.11841260  1
  C  C29  1  0.01305699  0.06747980  0.14086426  1
  H  H30  1  0.15287311  0.06694521  0.11829173  1
  C  C31  1  0.15743361  0.12644902  0.12721681  1
  C  C32  1  0.00813721  0.04259650  0.19996079  1
  C  C33  1  0.00344956  0.03100690  0.23154854  1
  C  C34  1  0.08460143  0.00940451  0.13442495  1
  C  C35  1  0.16184503  0.09449080  0.20034234  1
  O  O36  1  0.16411866  0.15170164  0.13145861  1
  C  C37  1  0.12320608  0.08953864  0.24232106  1
  O  O38  1  0.07931949  0.00624741  0.02776549  1
  O  O39  1  0.07528560  0.15916347  0.00631659  1
  O  O40  1  0.16969739  0.01947111  0.11089631  1
  C  C41  1  0.17517298  0.07692957  0.11699999  1
  O  O42  1  0.18591232  0.10303487  0.19482481  1
  C  C43  1  0.17979992  0.10580172  0.11878749  1
  O  O44  1  0.21830029  0.01212901  0.12108734  1
  C  C45  1  0.19602407  0.02751053  0.11590331  1
  C  C46  1  0.19839663  0.05787765  0.11724937  1
  H  H47  1  0.21484547  0.13894413  0.11715930  1
  C  C48  1  0.20868192  0.11634031  0.11653821  1
  C  C49  1  0.23148310  0.09638788  0.11348576  1
  C  C50  1  0.22773588  0.06745037  0.11537532  1
  H  H51  1  0.24635334  0.05195685  0.11425698  1
  C  C52  1  0.30737385  0.10382457  0.21256092  1
  C  C53  1  0.26122808  0.10813121  0.10943501  1
  O  O54  1  0.28326785  0.09143052  0.10909693  1
  O  O55  1  0.26341667  0.13339559  0.10296283  1
  O  O56  1  0.30381773  0.13662848  0.03162846  1
  O  O57  1  0.28123381  0.10128948  0.21406981  1
  Cu  Cu58  1  0.28186289  0.14006143  0.06564234  1
  Cu  Cu59  1  0.30410057  0.09549854  0.14624483  1
  H  H60  1  0.29670486  0.02774726  0.22607825  1
  O  O61  1  0.17678966  0.16237938  0.06874878  1
  C  C62  1  0.32007206  0.03229584  0.23353475  1
  O  O63  1  0.31517590  0.01182069  0.17283311  1
  C  C64  1  0.32540232  0.10819030  0.24213501  1
  O  O65  1  0.32154823  0.10016863  0.18602435  1
  C  C66  1  0.17043675  0.16617549  0.03987357  1
  C  C67  1  0.29501952  0.13796461  0.00356642  1
  H  H68  1  0.19534282  0.11443747  0.24689286  1
  O  O69  1  0.33374390  0.07012807  0.01595526  1
  Cu  Cu70  1  0.33677443  0.03225029  0.01588198  1
  H  H71  1  0.34271634  0.08665888  0.07081785  1
  C  C72  1  0.33915311  0.01958303  0.18005825  1
  C  C73  1  0.35575378  0.11228965  0.24102834  1
  C  C74  1  0.34446234  0.03042424  0.21313047  1
  O  O75  1  0.34183589  0.09947946  0.12475382  1
  O  O76  1  0.36244961  0.01832426  0.16126383  1
  C  C77  1  0.40975739  0.01402991  0.05983655  1
  C  C78  1  0.35591265  0.10410992  0.06242106  1
  C  C79  1  0.38706442  0.02444124  0.08316073  1
  O  O80  1  0.38517000  0.04922566  0.08441358  1
  H  H81  1  0.36962944  0.10707526  0.22037322  1
  C  C82  1  0.42937569  0.02951966  0.04210689  1
  C  C83  1  0.35561232  0.12228098  0.11691021  1
  O  O84  1  0.36222934  0.13984865  0.13566399  1
  C  C85  1  0.36546707  0.12534885  0.08318850  1
  C  C86  1  0.36491910  0.10653173  0.03148560  1
  H  H87  1  0.42821116  0.05234410  0.04568286  1
  C  C88  1  0.39108277  0.14867846  0.04271921  1
  C  C89  1  0.38095354  0.14871442  0.07442549  1
  O  O90  1  0.47184656  0.07220690  0.19870433  1
  C  C91  1  0.48688996  0.08626895  0.17809762  1
  O  O92  1  0.47783991  0.10820616  0.16874785  1
  H  H93  1  0.39190565  0.03554353  0.20501711  1
  C  C94  1  0.37257268  0.03767247  0.22186120  1
  Cu  Cu95  1  0.44416884  0.09053978  0.22597922  1
  C  C96  1  0.45005691  0.01687653  0.02221260  1
  O  O97  1  0.36894770  0.00777525  0.09811219  1
  C  C98  1  0.38408913  0.12748655  0.02152137  1
  H  H99  1  0.45375979  0.15176508  0.23093991  1
  O  O100  1  0.41620136  0.11220654  0.24325938  1
  C  C101  1  0.47861209  0.14765058  0.23405144  1
  C  C102  1  0.35237806  0.08751147  0.00725088  1
  H  H103  1  0.38820544  0.16554178  0.08969299  1
  O  O104  1  0.42982288  0.05498119  0.24043679  1
  O  O105  1  0.46457970  0.05965898  0.00028870  1
  C  C106  1  0.48995788  0.12209154  0.24732680  1
  C  C107  1  0.46868851  0.03343511  0.00121686  1
  H  H108  1  0.00116968  0.25555216  0.15654583  1
  C  C109  1  0.01870299  0.24368327  0.03965092  1
  H  H110  1  0.05473802  0.18155551  0.05549964  1
  O  O111  1  0.03398480  0.20554271  0.10805006  1
  C  C112  1  0.02047300  0.30709087  0.14461207  1
  C  C113  1  0.03002128  0.22097537  0.05550045  1
  O  O114  1  0.04028960  0.28803963  0.23357223  1
  O  O115  1  0.03903424  0.28625154  0.13481301  1
  C  C116  1  0.04606279  0.19965830  0.04173287  1
  C  C117  1  0.13644602  0.28724540  0.04428226  1
  H  H118  1  0.07026589  0.28902455  0.18421570  1
  O  O119  1  0.10123681  0.28766700  0.12959726  1
  O  O120  1  0.09118594  0.27863531  0.07027404  1
  Cu  Cu121  1  0.06691077  0.28252325  0.10298297  1
  C  C122  1  0.10536046  0.29579961  0.05173789  1
  H  H123  1  0.12908915  0.24974418  0.07179415  1
  C  C124  1  0.14573810  0.26150101  0.05750351  1
  H  H125  1  0.12891610  0.27742884  0.21926062  1
  C  C126  1  0.12333352  0.29273394  0.23713285  1
  O  O127  1  0.09389188  0.31686595  0.04223451  1
  C  C128  1  0.07468778  0.31064899  0.18593657  1
  C  C129  1  0.11014305  0.31064363  0.14060896  1
  C  C130  1  0.15304250  0.30483087  0.02497239  1
  C  C131  1  0.02075228  0.21970764  0.09018167  1
  H  H132  1  0.14341922  0.32370676  0.01469818  1
  O  O133  1  0.13388317  0.32214931  0.13317095  1
  C  C134  1  0.04375391  0.31494504  0.23298379  1
  C  C135  1  0.09349206  0.32468532  0.16580519  1
  O  O136  1  0.09772129  0.24073056  0.24973558  1
  C  C137  1  0.06362087  0.32857750  0.20880901  1
  O  O138  1  0.15914433  0.30707141  0.18912823  1
  C  C139  1  0.05130894  0.20187122  0.00977849  1
  C  C140  1  0.13572199  0.31978934  0.23901397  1
  C  C141  1  0.02700703  0.24487981  0.00777466  1
  O  O142  1  0.02728075  0.33086255  0.14044432  1
  C  C143  1  0.15486950  0.32615577  0.21052050  1
  H  H144  1  0.00653912  0.26116027  0.05181811  1
  Cu  Cu145  1  0.16684301  0.18114941  0.10514023  1
  O  O146  1  0.16980239  0.21812058  0.08578948  1
  O  O147  1  0.18066712  0.18639038  0.02365347  1
  C  C148  1  0.17486684  0.25532014  0.05061910  1
  C  C149  1  0.18671246  0.23057684  0.06779321  1
  C  C150  1  0.18299497  0.29591200  0.02056435  1
  C  C151  1  0.19425416  0.27043714  0.03124899  1
  O  O152  1  0.27618473  0.18029009  0.07152759  1
  O  O153  1  0.26144886  0.19858348  0.02662386  1
  H  H154  1  0.28069101  0.25242313  0.02095295  1
  C  C155  1  0.27404318  0.20058264  0.05278343  1
  C  C156  1  0.28735475  0.25194982  0.04474935  1
  C  C157  1  0.28684476  0.22765172  0.06243735  1
  C  C158  1  0.29723299  0.27733209  0.05643819  1
  H  H159  1  0.29678076  0.21212053  0.10958570  1
  C  C160  1  0.29749275  0.22963061  0.09261743  1
  O  O161  1  0.21264776  0.22166218  0.06173755  1
  H  H162  1  0.21743186  0.26490798  0.02684876  1
  C  C163  1  0.30483212  0.25645509  0.10503498  1
  C  C164  1  0.29868783  0.30317233  0.03830682  1
  C  C165  1  0.30712757  0.28033357  0.08772592  1
  Cu  Cu166  1  0.22008240  0.19668846  0.02567105  1
  H  H167  1  0.31524605  0.29959469  0.09748676  1
  C  C168  1  0.31234877  0.25436819  0.13949946  1
  O  O169  1  0.30928857  0.23194034  0.15070492  1
  O  O170  1  0.29353456  0.30368936  0.00942989  1
  O  O171  1  0.30042282  0.32607652  0.05357952  1
  O  O172  1  0.32395846  0.27483202  0.15476725  1
  H  H173  1  0.32622748  0.17967572  0.02902576  1
  Cu  Cu174  1  0.17218407  0.31999587  0.15176798  1
  O  O175  1  0.22846522  0.31318604  0.10140390  1
  H  H176  1  0.27490892  0.33318356  0.10284806  1
  C  C177  1  0.21752794  0.33223577  0.11405483  1
  C  C178  1  0.32111654  0.18365661  0.00440886  1
  O  O179  1  0.23157585  0.30294668  0.00193036  1
  C  C180  1  0.20441753  0.31173332  0.00150959  1
  C  C181  1  0.41052552  0.17212888  0.03343879  1
  O  O182  1  0.41407008  0.19401722  0.05132821  1
  Cu  Cu183  1  0.36647250  0.27444196  0.16763231  1
  H  H184  1  0.47307636  0.25027585  0.12004770  1
  O  O185  1  0.45576001  0.19530936  0.21075689  1
  Cu  Cu186  1  0.40122118  0.22717046  0.03885754  1
  O  O187  1  0.36156557  0.21990297  0.02896876  1
  O  O188  1  0.43148923  0.25342552  0.02955705  1
  Cu  Cu189  1  0.43346897  0.21920325  0.18704905  1
  O  O190  1  0.38010561  0.25105088  0.13480556  1
  H  H191  1  0.38526538  0.27745986  0.08997088  1
  O  O192  1  0.42010329  0.22760439  0.14698148  1
  C  C193  1  0.40312218  0.31607104  0.04705879  1
  C  C194  1  0.40867291  0.28160218  0.09160227  1
  C  C195  1  0.42087690  0.29958735  0.06891706  1
  C  C196  1  0.40787952  0.24787561  0.13307066  1
  C  C197  1  0.42576696  0.26527461  0.11139359  1
  C  C198  1  0.45173151  0.30136784  0.06659085  1
  C  C199  1  0.45691578  0.26414986  0.10716895  1
  C  C200  1  0.46797996  0.28252744  0.08550282  1
  O  O201  1  0.37813306  0.30960746  0.03734205  1
  H  H202  1  0.48639727  0.26010184  0.02654837  1
  O  O203  1  0.42200538  0.25074939  0.21088205  1
  O  O204  1  0.37338705  0.25864958  0.20803614  1
  O  O205  1  0.37140340  0.31184229  0.16735554  1
  C  C206  1  0.39759116  0.25531185  0.22356601  1
  H  H207  1  0.46193780  0.31543473  0.04873277  1
  C  C208  1  0.48524449  0.19474881  0.21246769  1
  H  H209  1  0.37803451  0.31865461  0.22493399  1
  Cu  Cu210  1  0.37002470  0.28059864  0.00854427  1
  C  C211  1  0.39551117  0.32646699  0.16385208  1
  C  C212  1  0.49831405  0.16834218  0.22568001  1
  C  C213  1  0.34956346  0.22737653  0.00339522  1
  O  O214  1  0.49997020  0.21369519  0.20463509  1
  O  O215  1  0.40569407  0.33178295  0.13867459  1
  C  C216  1  0.39764834  0.33210005  0.22238790  1
  O  O217  1  0.42418556  0.16934757  0.00893074  1
  C  C218  1  0.43215265  0.26680482  0.00372634  1
  C  C219  1  0.48701787  0.26143277  0.00074171  1
  C  C220  1  0.16210078  0.49393703  0.19585504  1
  C  C221  1  0.05400427  0.48643452  0.15180279  1
  O  O222  1  0.04639198  0.48063626  0.18025674  1
  O  O223  1  0.07715581  0.47454963  0.14135919  1
  O  O224  1  0.02101233  0.42797705  0.16033814  1
  C  C225  1  0.06652261  0.35748228  0.21101576  1
  C  C226  1  0.09750158  0.35350460  0.16652509  1
  Cu  Cu227  1  0.04431614  0.44369677  0.19501478  1
  C  C228  1  0.02741139  0.42658642  0.13153215  1
  H  H229  1  0.11044080  0.36421929  0.14853967  1
  C  C230  1  0.08297571  0.37134159  0.18770896  1
  C  C231  1  0.08336015  0.40146405  0.18635164  1
  O  O232  1  0.07101168  0.41789319  0.20588256  1
  H  H233  1  0.04267168  0.43008921  0.07226895  1
  C  C234  1  0.02145920  0.44108541  0.07656249  1
  O  O235  1  0.13454229  0.46361285  0.13193553  1
  C  C236  1  0.13276121  0.45781796  0.10305810  1
  Cu  Cu237  1  0.08919531  0.42786834  0.12425783  1
  O  O238  1  0.05036082  0.41302437  0.12206975  1
  O  O239  1  0.09697333  0.41299271  0.16382926  1
  O  O240  1  0.11086517  0.44412808  0.09121649  1
  C  C241  1  0.01855896  0.45736682  0.02231782  1
  H  H242  1  0.05577378  0.37164107  0.22844241  1
  H  H243  1  0.14326478  0.44984350  0.03703515  1
  O  O244  1  0.03400468  0.43921747  0.01233661  1
  C  C245  1  0.01016904  0.44228999  0.10805334  1
  C  C246  1  0.00754765  0.45713863  0.05529865  1
  O  O247  1  0.02057078  0.48239649  0.01027469  1
  O  O248  1  0.15497452  0.47567352  0.21272949  1
  C  C249  1  0.15864097  0.46370981  0.08398591  1
  Cu  Cu250  1  0.11344505  0.48824068  0.15590711  1
  C  C251  1  0.16095143  0.45919707  0.05197367  1
  O  O252  1  0.16532503  0.34912883  0.20726637  1
  Cu  Cu253  1  0.05657301  0.49533507  0.00772304  1
  C  C254  1  0.24074998  0.49988323  0.21884566  1
  O  O255  1  0.25917742  0.49878767  0.08997943  1
  O  O256  1  0.31971914  0.49777101  0.11325788  1
  O  O257  1  0.23511595  0.49334765  0.13515477  1
  C  C258  1  0.32069917  0.48854502  0.14035831  1
  C  C259  1  0.21348305  0.48741186  0.21278033  1
  C  C260  1  0.23749688  0.49051810  0.10535599  1
  O  O261  1  0.28929425  0.49180851  0.23515819  1
  O  O262  1  0.18823489  0.33688334  0.11748057  1
  Cu  Cu263  1  0.29902993  0.48740496  0.07989322  1
  H  H264  1  0.18286400  0.47288991  0.12794197  1
  C  C265  1  0.18447042  0.47275877  0.10198110  1
  H  H266  1  0.23232936  0.48137090  0.04210351  1
  C  C267  1  0.18795066  0.46715694  0.03877726  1
  C  C268  1  0.26744870  0.35159567  0.11697120  1
  C  C269  1  0.23784766  0.35473503  0.12561166  1
  C  C270  1  0.21150132  0.47879862  0.05569109  1
  C  C271  1  0.31871664  0.37136541  0.11988755  1
  C  C272  1  0.28582594  0.37372202  0.12600601  1
  H  H273  1  0.20319433  0.38157377  0.14589709  1
  Cu  Cu274  1  0.26234873  0.47910619  0.16197624  1
  C  C275  1  0.22705693  0.37853257  0.14109365  1
  C  C276  1  0.21060471  0.48113308  0.08823542  1
  C  C277  1  0.24684758  0.39891556  0.15067744  1
  C  C278  1  0.27647970  0.39733002  0.14279307  1
  O  O279  1  0.25524120  0.44250509  0.17714010  1
  C  C280  1  0.23556269  0.42425686  0.16847497  1
  O  O281  1  0.20962873  0.42564958  0.17353299  1
  H  H282  1  0.29263953  0.41301409  0.15071942  1
  H  H283  1  0.20775362  0.46550176  0.21800400  1
  H  H284  1  0.28609220  0.42610338  0.03280748  1
  O  O285  1  0.29424084  0.37824753  0.02957507  1
  C  C286  1  0.28220475  0.47883503  0.01742260  1
  C  C287  1  0.26397719  0.48219781  0.23406712  1
  O  O288  1  0.28295570  0.47178623  0.04787784  1
  O  O289  1  0.30042390  0.47180990  0.15094129  1
  O  O290  1  0.32662776  0.35230222  0.09991225  1
  C  C291  1  0.28401730  0.42857867  0.00775611  1
  Cu  Cu292  1  0.32564138  0.35634327  0.05453406  1
  C  C293  1  0.19248813  0.46086704  0.00442233  1
  O  O294  1  0.24805447  0.38776142  0.23512454  1
  Cu  Cu295  1  0.25447834  0.42456300  0.24244962  1
  H  H296  1  0.32663241  0.47859032  0.20181068  1
  O  O297  1  0.27929092  0.35291732  0.24628570  1
  C  C298  1  0.29236269  0.37824492  0.00108001  1
  C  C299  1  0.47792597  0.49777765  0.23531507  1
  Cu  Cu300  1  0.41094807  0.36356638  0.00047591  1
  O  O301  1  0.47819459  0.39324042  0.18039592  1
  O  O302  1  0.33488460  0.38635499  0.13386755  1
  O  O303  1  0.41970633  0.42589862  0.12836637  1
  C  C304  1  0.43941568  0.35980896  0.24425993  1
  C  C305  1  0.36664503  0.49729493  0.24490919  1
  C  C306  1  0.40992895  0.33731893  0.19343558  1
  C  C307  1  0.39806264  0.42117129  0.07182983  1
  O  O308  1  0.48623366  0.39176887  0.23243979  1
  Cu  Cu309  1  0.44735698  0.46430481  0.16177574  1
  C  C310  1  0.34428736  0.49894979  0.16095911  1
  C  C311  1  0.41862728  0.44200095  0.07842575  1
  O  O312  1  0.37560810  0.38215551  0.00710275  1
  C  C313  1  0.39770584  0.43481947  0.01648905  1
  C  C314  1  0.42754899  0.46096672  0.05447655  1
  O  O315  1  0.41614616  0.33750940  0.03594258  1
  C  C316  1  0.42921236  0.44455519  0.11017147  1
  C  C317  1  0.34440388  0.49087815  0.19227136  1
  C  C318  1  0.41462090  0.45795534  0.02525300  1
  C  C319  1  0.44893652  0.36451740  0.21461866  1
  O  O320  1  0.48619220  0.45098557  0.22897597  1
  O  O321  1  0.44623679  0.46802243  0.20473628  1
  C  C322  1  0.43636413  0.35160329  0.18804196  1
  C  C323  1  0.38966841  0.41717149  0.04059409  1
  C  C324  1  0.46927325  0.47079991  0.22229777  1
  C  C325  1  0.47345610  0.38446773  0.20813223  1
  H  H326  1  0.44032452  0.47905650  0.06161675  1
  Cu  Cu327  1  0.44849330  0.41183393  0.15644344  1
  O  O328  1  0.35604802  0.38290661  0.05457729  1
  C  C329  1  0.37086404  0.39316070  0.03271583  1
  H  H330  1  0.44470865  0.35643271  0.16441659  1
  H  H331  1  0.38941266  0.40794710  0.08986318  1
  O  O332  1  0.44838828  0.46297010  0.11945191  1
  C  C333  1  0.41318337  0.34385408  0.24748111  1
  C  C334  1  0.13812801  0.09840212  0.29729592  1
  H  H335  1  0.13177209  0.09719109  0.32234291  1
  O  O336  1  0.08343321  0.08074871  0.31623752  1
  C  C337  1  0.11808383  0.08989699  0.27492445  1
  C  C338  1  0.09079726  0.07880458  0.28745654  1
  Cu  Cu339  1  0.04854771  0.06709167  0.33174502  1
  H  H340  1  0.11551973  0.03396662  0.39231554  1
  O  O341  1  0.03198450  0.03350496  0.34401087  1
  Cu  Cu342  1  0.09978155  0.07905257  0.47172551  1
  O  O343  1  0.02815801  0.02765944  0.39444904  1
  C  C344  1  0.01681776  0.02849898  0.36934505  1
  Cu  Cu345  1  0.03118690  0.07275481  0.27577959  1
  O  O346  1  0.07099037  0.07262055  0.26635850  1
  O  O347  1  0.12196209  0.06406545  0.43640113  1
  C  C348  1  0.13716227  0.03572611  0.38213498  1
  C  C349  1  0.14780286  0.02118883  0.35602632  1
  O  O350  1  0.01479534  0.09315345  0.32959989  1
  Cu  Cu351  1  0.15704613  0.14699711  0.35857397  1
  C  C352  1  0.14689376  0.06947398  0.42328052  1
  O  O353  1  0.07042468  0.09335750  0.49916137  1
  O  O354  1  0.09244435  0.15352681  0.34944478  1
  O  O355  1  0.02101056  0.03786219  0.25321346  1
  C  C356  1  0.15709509  0.05514591  0.39479709  1
  O  O357  1  0.16342648  0.15031253  0.45187029  1
  C  C358  1  0.16561110  0.10936777  0.28683611  1
  O  O359  1  0.16468454  0.08790972  0.43242634  1
  O  O360  1  0.17694285  0.00322384  0.46453334  1
  C  C361  1  0.21593105  0.00122474  0.41206702  1
  Cu  Cu362  1  0.17166250  0.11461860  0.46283309  1
  O  O363  1  0.17648475  0.11912667  0.33882613  1
  C  C364  1  0.17587462  0.02483467  0.34309394  1
  C  C365  1  0.21845174  0.01971536  0.43741599  1
  C  C366  1  0.18641304  0.11994638  0.31077927  1
  C  C367  1  0.18444497  0.06121604  0.38120925  1
  C  C368  1  0.19384593  0.04613724  0.35505598  1
  H  H369  1  0.19838540  0.07827065  0.39091591  1
  C  C370  1  0.22064903  0.05281827  0.33853330  1
  C  C371  1  0.26091462  0.04045069  0.41201474  1
  O  O372  1  0.23734377  0.07171464  0.35023314  1
  Cu  Cu373  1  0.27778857  0.06985701  0.34206383  1
  C  C374  1  0.28212376  0.06332650  0.40833609  1
  O  O375  1  0.28405020  0.08089070  0.43098095  1
  O  O376  1  0.22725742  0.04141689  0.31274752  1
  C  C377  1  0.24002561  0.04008713  0.43678603  1
  Cu  Cu378  1  0.31561844  0.09806953  0.44920959  1
  H  H379  1  0.24177047  0.05800422  0.45348094  1
  C  C380  1  0.26139281  0.02066738  0.38830954  1
  H  H381  1  0.27807478  0.02103798  0.36881556  1
  O  O382  1  0.30625324  0.05264775  0.31306174  1
  O  O383  1  0.27742086  0.03072159  0.27882921  1
  C  C384  1  0.30167383  0.04179045  0.28664006  1
  O  O385  1  0.21202365  0.12703076  0.30520017  1
  O  O386  1  0.29562858  0.06600838  0.38342156  1
  O  O387  1  0.27538751  0.11843010  0.31754347  1
  C  C388  1  0.30416495  0.12157683  0.32424085  1
  Cu  Cu389  1  0.24261678  0.13438498  0.33524073  1
  O  O390  1  0.29686612  0.10482501  0.48751817  1
  O  O391  1  0.18915009  0.14890575  0.38612581  1
  O  O392  1  0.23649256  0.15281794  0.37443705  1
  O  O393  1  0.31124546  0.12749892  0.34989498  1
  C  C394  1  0.32405677  0.11748242  0.29630996  1
  O  O395  1  0.20365808  0.03186261  0.49138220  1
  C  C396  1  0.30825985  0.11011653  0.26905413  1
  C  C397  1  0.19783702  0.01833270  0.46564060  1
  C  C398  1  0.28858294  0.12883071  0.49709767  1
  H  H399  1  0.18242288  0.01060665  0.32248059  1
  O  O400  1  0.30173139  0.15103141  0.49050886  1
  C  C401  1  0.17264570  0.10829951  0.25506314  1
  H  H402  1  0.28297732  0.10858713  0.26577472  1
  C  C403  1  0.21284921  0.16348659  0.38330900  1
  C  C404  1  0.32720571  0.04023545  0.26385137  1
  Cu  Cu405  1  0.25521475  0.01180046  0.30776550  1
  C  C406  1  0.23828344  0.00068431  0.38971611  1
  O  O407  1  0.49930521  0.12830670  0.45176317  1
  O  O408  1  0.35400980  0.10753602  0.46292757  1
  C  C409  1  0.35527245  0.11818787  0.29808083  1
  H  H410  1  0.38084609  0.08827965  0.41922567  1
  H  H411  1  0.36222631  0.05082870  0.29872056  1
  C  C412  1  0.35626124  0.04435519  0.27539671  1
  Cu  Cu413  1  0.43477872  0.08553378  0.31098744  1
  O  O414  1  0.41279870  0.06036357  0.28902049  1
  O  O415  1  0.40491917  0.06298160  0.37458112  1
  C  C416  1  0.42284845  0.08125760  0.37584245  1
  O  O417  1  0.44194509  0.08608813  0.35352951  1
  C  C418  1  0.41907112  0.10655525  0.39602137  1
  C  C419  1  0.39620511  0.10627778  0.41793006  1
  C  C420  1  0.43882367  0.12861211  0.39210921  1
  H  H421  1  0.45556256  0.12801009  0.37441269  1
  H  H422  1  0.36706178  0.12156161  0.32063875  1
  O  O423  1  0.41639760  0.11608026  0.29553340  1
  C  C424  1  0.39404641  0.12917628  0.43817205  1
  C  C425  1  0.36870638  0.13014408  0.45892719  1
  C  C426  1  0.37127460  0.11573898  0.26999364  1
  C  C427  1  0.40344219  0.11596740  0.26941096  1
  C  C428  1  0.40958837  0.05261312  0.26071727  1
  C  C429  1  0.43522680  0.15135251  0.41233261  1
  C  C430  1  0.41353807  0.15220944  0.43485358  1
  O  O431  1  0.36353255  0.15215658  0.47420876  1
  C  C432  1  0.37842721  0.04507947  0.25345365  1
  O  O433  1  0.47290212  0.10125341  0.25418415  1
  H  H434  1  0.11510570  0.17119203  0.46290968  1
  O  O435  1  0.12950572  0.17237685  0.37572855  1
  C  C436  1  0.10338985  0.17309026  0.36286936  1
  O  O437  1  0.06280532  0.18298361  0.46935513  1
  C  C438  1  0.12337446  0.18851494  0.47745061  1
  O  O439  1  0.01100843  0.24998067  0.30346782  1
  H  H440  1  0.05647097  0.18091867  0.32608503  1
  C  C441  1  0.02191551  0.22549334  0.31139930  1
  C  C442  1  0.08550507  0.20016128  0.36154155  1
  C  C443  1  0.06222568  0.19988458  0.34024620  1
  C  C444  1  0.09491190  0.22325719  0.37793625  1
  C  C445  1  0.05512370  0.24900791  0.35159431  1
  C  C446  1  0.07982586  0.24797720  0.37204614  1
  C  C447  1  0.04696709  0.22479425  0.33589562  1
  H  H448  1  0.04301000  0.26832345  0.35105581  1
  H  H449  1  0.11208660  0.22023155  0.39493964  1
  O  O450  1  0.10979332  0.27441635  0.40759292  1
  C  C451  1  0.08625037  0.27578039  0.38771086  1
  O  O452  1  0.07004100  0.29538920  0.38859008  1
  Cu  Cu453  1  0.13686617  0.30274206  0.41093101  1
  Cu  Cu454  1  0.11825892  0.26512068  0.45166345  1
  O  O455  1  0.09450492  0.29281269  0.47200806  1
  H  H456  1  0.04496216  0.30841105  0.47869967  1
  C  C457  1  0.15400426  0.19321910  0.48126014  1
  O  O458  1  0.01613118  0.20505848  0.29794857  1
  O  O459  1  0.14632611  0.24197917  0.43518010  1
  C  C460  1  0.06967337  0.20017440  0.48832297  1
  H  H461  1  0.07920580  0.30049682  0.30136770  1
  C  C462  1  0.09516494  0.30683479  0.28464853  1
  C  C463  1  0.10267606  0.20465352  0.49289439  1
  C  C464  1  0.10408239  0.31117202  0.49145148  1
  Cu  Cu465  1  0.02689898  0.26959407  0.26925812  1
  O  O466  1  0.06460804  0.25855744  0.28206597  1
  C  C467  1  0.05113086  0.32331552  0.49626506  1
  C  C468  1  0.16405467  0.21412375  0.49990496  1
  O  O469  1  0.03353325  0.33130140  0.25098965  1
  C  C470  1  0.10486394  0.28703139  0.26259533  1
  C  C471  1  0.08888567  0.25971475  0.26527664  1
  C  C472  1  0.17531935  0.17342562  0.46494847  1
  H  H473  1  0.17050340  0.19725927  0.41118305  1
  C  C474  1  0.16859276  0.25207140  0.42376631  1
  O  O475  1  0.20126426  0.17793211  0.46774215  1
  O  O476  1  0.16972020  0.27863499  0.42065929  1
  C  C477  1  0.21368024  0.19335716  0.39067380  1
  H  H478  1  0.26090160  0.19362448  0.37602374  1
  C  C479  1  0.24152477  0.20632892  0.38481961  1
  C  C480  1  0.19019625  0.20823203  0.40291149  1
  C  C481  1  0.24442736  0.23495629  0.39060860  1
  C  C482  1  0.19400684  0.23625162  0.40957041  1
  C  C483  1  0.22096797  0.25044037  0.40341121  1
  H  H484  1  0.22403848  0.27300978  0.40627095  1
  C  C485  1  0.27399682  0.24609302  0.38605037  1
  O  O486  1  0.28062557  0.27303575  0.39150335  1
  O  O487  1  0.29329539  0.23131430  0.37688050  1
  Cu  Cu488  1  0.31230037  0.29489286  0.37450008  1
  O  O489  1  0.32228085  0.29844028  0.30131164  1
  O  O490  1  0.32414702  0.29869358  0.41582741  1
  O  O491  1  0.29171254  0.32521098  0.35514465  1
  C  C492  1  0.33322519  0.32097345  0.42745179  1
  C  C493  1  0.34212135  0.29042387  0.31708487  1
  O  O494  1  0.34287780  0.29536263  0.34719522  1
  O  O495  1  0.47436883  0.17680410  0.38844111  1
  C  C496  1  0.45276408  0.17741460  0.40771366  1
  H  H497  1  0.41061289  0.17002201  0.45047285  1
  O  O498  1  0.44320810  0.20037674  0.41677861  1
  H  H499  1  0.39354354  0.28176668  0.34755297  1
  O  O500  1  0.44251032  0.25673186  0.35726764  1
  C  C501  1  0.44547802  0.25348167  0.32784365  1
  C  C502  1  0.39408166  0.27421569  0.32192990  1
  C  C503  1  0.41949272  0.26142007  0.30844590  1
  C  C504  1  0.42139794  0.25644104  0.27616602  1
  C  C505  1  0.37050203  0.27744972  0.30285497  1
  C  C506  1  0.36983361  0.27127618  0.27114781  1
  O  O507  1  0.46903080  0.24399679  0.31648832  1
  Cu  Cu508  1  0.44201696  0.22921420  0.38897735  1
  O  O509  1  0.42017051  0.25275827  0.41380110  1
  C  C510  1  0.38373915  0.29758880  0.42632081  1
  C  C511  1  0.43436460  0.27518787  0.42311845  1
  H  H512  1  0.37301832  0.27832948  0.41844664  1
  O  O513  1  0.46011591  0.27693904  0.42797048  1
  C  C514  1  0.41396812  0.29961677  0.42761396  1
  C  C515  1  0.36561650  0.32152858  0.43089905  1
  H  H516  1  0.44204448  0.24761197  0.26659766  1
  H  H517  1  0.35053072  0.27651170  0.25802207  1
  C  C518  1  0.39609273  0.26169073  0.25724577  1
  O  O519  1  0.37809563  0.32986820  0.28477038  1
  C  C520  1  0.42827152  0.32401728  0.43710531  1
  H  H521  1  0.45286432  0.32386387  0.43816975  1
  O  O522  1  0.15966297  0.33587567  0.40900687  1
  C  C523  1  0.10698080  0.33361877  0.28216697  1
  O  O524  1  0.07706884  0.35052442  0.32262956  1
  C  C525  1  0.09576686  0.35594759  0.30412336  1
  O  O526  1  0.13113707  0.37216165  0.40975044  1
  O  O527  1  0.10366156  0.38164057  0.29827645  1
  O  O528  1  0.08490011  0.41872998  0.34529175  1
  O  O529  1  0.11227769  0.42758026  0.38687752  1
  C  C530  1  0.08689987  0.42314296  0.37482928  1
  C  C531  1  0.01159400  0.40831004  0.40974634  1
  C  C532  1  0.01557784  0.41304917  0.44182299  1
  H  H533  1  0.02939375  0.40617457  0.36228329  1
  C  C534  1  0.03400960  0.41030517  0.38794391  1
  C  C535  1  0.06284518  0.41828067  0.39660038  1
  C  C536  1  0.04477282  0.41773357  0.45060960  1
  C  C537  1  0.06779938  0.42152079  0.42910425  1
  H  H538  1  0.09098664  0.42862923  0.43549314  1
  H  H539  1  0.13450828  0.39918378  0.45796494  1
  Cu  Cu540  1  0.12090759  0.40812895  0.32505235  1
  Cu  Cu541  1  0.14061064  0.40094660  0.38188422  1
  C  C542  1  0.05395637  0.42333275  0.48480004  1
  C  C543  1  0.15274731  0.35848420  0.42146608  1
  C  C544  1  0.15657345  0.39234903  0.46537023  1
  O  O545  1  0.08101408  0.43335187  0.48987343  1
  O  O546  1  0.16068928  0.39914555  0.31254753  1
  H  H547  1  0.13409326  0.36296304  0.25725556  1
  C  C548  1  0.12814861  0.34077424  0.25903058  1
  O  O549  1  0.17147331  0.38462011  0.35998776  1
  O  O550  1  0.25797146  0.33707394  0.39040697  1
  H  H551  1  0.20869773  0.34339873  0.44071414  1
  C  C552  1  0.26719255  0.33605096  0.36134660  1
  C  C553  1  0.16930285  0.37104358  0.44763189  1
  O  O554  1  0.19026175  0.49803283  0.34509626  1
  O  O555  1  0.31662454  0.34154062  0.43436338  1
  Cu  Cu556  1  0.27634070  0.34885345  0.42746149  1
  O  O557  1  0.25315903  0.34319209  0.46235161  1
  H  H558  1  0.28474524  0.34050585  0.30005385  1
  C  C559  1  0.17888273  0.38807756  0.33139511  1
  O  O560  1  0.18235840  0.48737401  0.48837982  1
  C  C561  1  0.19665538  0.35950776  0.45394026  1
  H  H562  1  0.21701076  0.36185692  0.36944009  1
  C  C563  1  0.25078733  0.34845305  0.33577237  1
  C  C564  1  0.26278991  0.35016888  0.30477279  1
  C  C565  1  0.22387010  0.36081015  0.34417165  1
  C  C566  1  0.24452560  0.36387480  0.28442997  1
  C  C567  1  0.21723188  0.37513094  0.29066983  1
  H  H568  1  0.20172989  0.38360243  0.27436454  1
  C  C569  1  0.20666263  0.37501985  0.32213675  1
  O  O570  1  0.24252800  0.41732511  0.42344299  1
  O  O571  1  0.24027053  0.43390468  0.31392730  1
  O  O572  1  0.27505158  0.42005107  0.28069696  1
  C  C573  1  0.26481698  0.42386831  0.30922531  1
  H  H574  1  0.24355964  0.42640358  0.36453085  1
  C  C575  1  0.28387495  0.41681444  0.33738493  1
  C  C576  1  0.26755496  0.41847456  0.36531855  1
  C  C577  1  0.28479561  0.41086312  0.39089453  1
  C  C578  1  0.26840931  0.41160174  0.42238829  1
  O  O579  1  0.28437495  0.40554070  0.44754844  1
  C  C580  1  0.25793248  0.36698434  0.25175962  1
  C  C581  1  0.31499017  0.40366589  0.39142429  1
  C  C582  1  0.31405844  0.40914974  0.33645690  1
  C  C583  1  0.21427677  0.37296681  0.47699529  1
  C  C584  1  0.24399996  0.36218380  0.48122139  1
  Cu  Cu585  1  0.27224631  0.41097139  0.48799976  1
  H  H586  1  0.32641039  0.41010117  0.31553135  1
  C  C587  1  0.17378637  0.40422224  0.48918749  1
  H  H588  1  0.32740062  0.40018273  0.41239148  1
  C  C589  1  0.33040501  0.40249013  0.36301628  1
  C  C590  1  0.20206416  0.39479371  0.49515232  1
  O  O591  1  0.25496408  0.46134076  0.25013039  1
  O  O592  1  0.41632164  0.35231059  0.30251766  1
  Cu  Cu593  1  0.41075645  0.38782034  0.32323983  1
  C  C594  1  0.36189561  0.39526641  0.36322390  1
  C  C595  1  0.44743109  0.49128894  0.37963968  1
  C  C596  1  0.43445617  0.45910818  0.32589191  1
  H  H597  1  0.47217578  0.40926280  0.38803277  1
  O  O598  1  0.38493578  0.45169526  0.40844133  1
  H  H599  1  0.39609196  0.44471631  0.35236306  1
  H  H600  1  0.36475053  0.36417740  0.44634369  1
  H  H601  1  0.45033105  0.36819073  0.26472583  1
  O  O602  1  0.44959821  0.37898509  0.44556799  1
  O  O603  1  0.34308485  0.48622776  0.25702806  1
  C  C604  1  0.41051106  0.34708527  0.44370239  1
  C  C605  1  0.49285040  0.41770324  0.37774733  1
  Cu  Cu606  1  0.47851445  0.42364008  0.26042097  1
  O  O607  1  0.37758860  0.38924060  0.38700439  1
  Cu  Cu608  1  0.47655095  0.39731523  0.47379657  1
  O  O609  1  0.44364336  0.44279775  0.27375141  1
  O  O610  1  0.47756510  0.39964791  0.29525996  1
  O  O611  1  0.41368865  0.48137511  0.43412066  1
  O  O612  1  0.40272367  0.39452778  0.45135122  1
  C  C613  1  0.40134937  0.34108538  0.27942862  1
  C  C614  1  0.49667241  0.41556770  0.34487511  1
  C  C615  1  0.47392246  0.40328801  0.32472020  1
  C  C616  1  0.45798025  0.47896326  0.32669346  1
  C  C617  1  0.42186203  0.37483651  0.44873579  1
  O  O618  1  0.37275259  0.39499388  0.33560534  1
  O  O619  1  0.44940712  0.39585742  0.33743685  1
  Cu  Cu620  1  0.39261287  0.41581149  0.41789173  1
  O  O621  1  0.40864361  0.42245255  0.30201481  1
  C  C622  1  0.40557276  0.46975758  0.40934851  1
  C  C623  1  0.42869241  0.43991099  0.29949858  1
  C  C624  1  0.46299470  0.49603920  0.35199001  1
  C  C625  1  0.42198933  0.47397713  0.37998953  1
  O  O626  1  0.48877518  0.42034839  0.44064614  1
  C  C627  1  0.37905942  0.34567379  0.44150311  1
  H  H628  1  0.47240996  0.48275616  0.30440868  1
  C  C629  1  0.41625458  0.45825302  0.35246136  1
  C  C630  1  0.03895682  0.09149150  0.60335151  1
  C  C631  1  0.04297780  0.07675367  0.57534279  1
  C  C632  1  0.05206788  0.09451568  0.55105605  1
  C  C633  1  0.03999172  0.12115763  0.60526348  1
  C  C634  1  0.04769778  0.13645086  0.57943833  1
  C  C635  1  0.05558125  0.12318656  0.55148122  1
  H  H636  1  0.04159102  0.05423748  0.57310605  1
  C  C637  1  0.03461841  0.07496783  0.63164818  1
  C  C638  1  0.12175094  0.12514223  0.59563661  1
  H  H639  1  0.10227793  0.09927503  0.63429408  1
  C  C640  1  0.11223500  0.10064965  0.61131217  1
  C  C641  1  0.11546108  0.07627261  0.59554025  1
  C  C642  1  0.12328294  0.07592727  0.56386033  1
  O  O643  1  0.03408027  0.04854171  0.63108154  1
  C  C644  1  0.13206958  0.12496760  0.56414164  1
  C  C645  1  0.13279058  0.09999172  0.54810430  1
  Cu  Cu646  1  0.06145799  0.02397732  0.64811330  1
  O  O647  1  0.09427247  0.04791152  0.63687338  1
  C  C648  1  0.11011150  0.05014210  0.61241441  1
  C  C649  1  0.12218675  0.15265142  0.60954773  1
  O  O650  1  0.11053220  0.15513448  0.63572760  1
  H  H651  1  0.12326942  0.05649262  0.54969575  1
  H  H652  1  0.03302465  0.12960186  0.62866833  1
  O  O653  1  0.02961406  0.08860588  0.65636400  1
  H  H654  1  0.06287087  0.13431055  0.53096738  1
  O  O655  1  0.12169137  0.02849445  0.60087479  1
  H  H656  1  0.14154946  0.14322917  0.55234584  1
  H  H657  1  0.10860952  0.01516284  0.71060378  1
  C  C658  1  0.05794111  0.07913008  0.52063836  1
  O  O659  1  0.05440411  0.05442002  0.51702921  1
  C  C660  1  0.14250736  0.09793743  0.51559161  1
  C  C661  1  0.02218638  0.07494751  0.73801980  1
  O  O662  1  0.04548089  0.08574199  0.73685619  1
  Cu  Cu663  1  0.15643549  0.01458948  0.61888426  1
  O  O664  1  0.05004967  0.16411078  0.67263467  1
  O  O665  1  0.13144964  0.07728026  0.50045554  1
  O  O666  1  0.15543456  0.11733754  0.50268782  1
  O  O667  1  0.22426768  0.05681498  0.53930214  1
  H  H668  1  0.18957641  0.12807585  0.56947848  1
  C  C669  1  0.21006046  0.07808634  0.55254140  1
  C  C670  1  0.22446121  0.10421012  0.54355861  1
  C  C671  1  0.21038403  0.12807402  0.55572942  1
  O  O672  1  0.18919389  0.07470603  0.56921090  1
  C  C673  1  0.24778250  0.10432450  0.52248016  1
  O  O674  1  0.21724203  0.03711451  0.64450505  1
  H  H675  1  0.26889974  0.03048920  0.66031907  1
  C  C676  1  0.22235282  0.15342666  0.54548574  1
  C  C677  1  0.26104134  0.13009137  0.51547108  1
  Cu  Cu678  1  0.21154674  0.02107245  0.53224873  1
  C  C679  1  0.21097975  0.01369365  0.65255051  1
  C  C680  1  0.24797551  0.15489238  0.52596816  1
  Cu  Cu681  1  0.22278349  0.01040046  0.71886733  1
  H  H682  1  0.25830132  0.08593012  0.51221775  1
  C  C683  1  0.26445585  0.00820398  0.66651991  1
  O  O684  1  0.24283036  0.07419921  0.73078518  1
  O  O685  1  0.32361791  0.02793340  0.67244330  1
  O  O686  1  0.20855940  0.04292073  0.74032205  1
  O  O687  1  0.18535954  0.00320943  0.64836213  1
  C  C688  1  0.31832468  0.00198246  0.67626051  1
  O  O689  1  0.21823751  0.00352227  0.56859709  1
  C  C690  1  0.22537830  0.06424809  0.74881222  1
  C  C691  1  0.49110357  0.01423787  0.61373245  1
  H  H692  1  0.45209257  0.02328111  0.58879718  1
  O  O693  1  0.36176608  0.10835999  0.55626031  1
  C  C694  1  0.36350117  0.13253202  0.56352864  1
  H  H695  1  0.36776531  0.09565180  0.60739777  1
  C  C696  1  0.36596220  0.13896054  0.59828011  1
  O  O697  1  0.37703673  0.10223049  0.70095508  1
  C  C698  1  0.36789464  0.11631615  0.61758184  1
  O  O699  1  0.40185228  0.02873958  0.68575267  1
  Cu  Cu700  1  0.36313594  0.03918118  0.68258521  1
  C  C701  1  0.37146900  0.12222514  0.65000691  1
  C  C702  1  0.37072617  0.09975009  0.67378949  1
  O  O703  1  0.36250803  0.07487381  0.66276100  1
  H  H704  1  0.45120393  0.04604202  0.71483011  1
  C  C705  1  0.37182285  0.14923821  0.66256426  1
  H  H706  1  0.37273226  0.15294079  0.68800989  1
  C  C707  1  0.45245106  0.02454832  0.72572820  1
  O  O708  1  0.36576275  0.15262196  0.54362173  1
  O  O709  1  0.49029141  0.05084870  0.57954969  1
  C  C710  1  0.41092632  0.00494991  0.69238661  1
  C  C711  1  0.46098523  0.01075450  0.60825920  1
  C  C712  1  0.43598936  0.00169890  0.71520062  1
  Cu  Cu713  1  0.33917835  0.16238177  0.51225595  1
  C  C714  1  0.36788108  0.16624474  0.61006966  1
  O  O715  1  0.49936902  0.06005956  0.74621029  1
  C  C716  1  0.47218262  0.01678453  0.74872908  1
  Cu  Cu717  1  0.07248244  0.16695166  0.63802108  1
  C  C718  1  0.04938846  0.16740399  0.58080135  1
  C  C719  1  0.02359242  0.17139134  0.67724366  1
  H  H720  1  0.06097474  0.17786093  0.72062781  1
  O  O721  1  0.13042451  0.17427150  0.59302026  1
  C  C722  1  0.01415780  0.17798709  0.70941547  1
  C  C723  1  0.03837799  0.18054676  0.72990887  1
  H  H724  1  0.01230745  0.24321676  0.65001910  1
  O  O725  1  0.05013241  0.18133253  0.60489053  1
  Cu  Cu726  1  0.01171053  0.19008937  0.61427351  1
  O  O727  1  0.05212277  0.17943754  0.55444001  1
  Cu  Cu728  1  0.02025113  0.19654889  0.52936645  1
  O  O729  1  0.05523496  0.25967928  0.69286361  1
  O  O730  1  0.04464778  0.25884385  0.56694673  1
  H  H731  1  0.11497510  0.28238150  0.59760126  1
  Cu  Cu732  1  0.07849450  0.21006607  0.60295501  1
  O  O733  1  0.10758350  0.23808512  0.60710953  1
  O  O734  1  0.04585212  0.23391619  0.61000500  1
  H  H735  1  0.09456579  0.23986830  0.52570245  1
  C  C736  1  0.03610233  0.25454779  0.59233034  1
  H  H737  1  0.09936183  0.29147882  0.70271299  1
  C  C738  1  0.05607482  0.25668240  0.72032559  1
  C  C739  1  0.13080384  0.23801011  0.62309005  1
  C  C740  1  0.10061492  0.28638945  0.72844153  1
  C  C741  1  0.13067570  0.28699958  0.61775556  1
  O  O742  1  0.13932987  0.26930612  0.55106767  1
  C  C743  1  0.14146322  0.26521889  0.63515120  1
  O  O744  1  0.14503742  0.21631567  0.63162284  1
  C  C745  1  0.11194165  0.22651070  0.51207185  1
  Cu  Cu746  1  0.14029061  0.30744304  0.54364493  1
  C  C747  1  0.14362707  0.31327755  0.62380864  1
  C  C748  1  0.14216115  0.23144135  0.51498697  1
  C  C749  1  0.15495639  0.25404042  0.53363099  1
  O  O750  1  0.03455947  0.24409426  0.73551173  1
  C  C751  1  0.14073779  0.32077991  0.73389679  1
  C  C752  1  0.16076498  0.27044509  0.66040188  1
  C  C753  1  0.08054788  0.26788319  0.74088646  1
  C  C754  1  0.16201227  0.31954620  0.64873632  1
  O  O755  1  0.12642425  0.33085913  0.57526989  1
  C  C756  1  0.12444471  0.29799753  0.74573134  1
  Cu  Cu757  1  0.16435974  0.19551938  0.60009586  1
  O  O758  1  0.16262924  0.33094807  0.74710504  1
  C  C759  1  0.00858660  0.26935817  0.60691324  1
  O  O760  1  0.00506504  0.17247060  0.65465548  1
  O  O761  1  0.13005071  0.33177475  0.70812916  1
  H  H762  1  0.00282316  0.30119879  0.56900130  1
  C  C763  1  0.00058131  0.25905094  0.63617106  1
  O  O764  1  0.13116007  0.31095807  0.50048927  1
  O  O765  1  0.05001117  0.21279924  0.50490927  1
  C  C766  1  0.08072452  0.32844117  0.50452513  1
  H  H767  1  0.16894760  0.25158943  0.67483732  1
  C  C768  1  0.17243024  0.29703237  0.66684966  1
  O  O769  1  0.18437494  0.17295600  0.57009881  1
  O  O770  1  0.18289823  0.25448184  0.53509100  1
  C  C771  1  0.20760382  0.17903836  0.55316965  1
  H  H772  1  0.25578823  0.17505020  0.51956219  1
  O  O773  1  0.21455960  0.20337503  0.54527516  1
  H  H774  1  0.27599921  0.20851304  0.56740063  1
  C  C775  1  0.19492076  0.30029817  0.69068902  1
  O  O776  1  0.20929522  0.28015384  0.70317554  1
  Cu  Cu777  1  0.20425921  0.23645965  0.56856443  1
  O  O778  1  0.22651487  0.22087155  0.60219685  1
  O  O779  1  0.23323432  0.25652879  0.63375804  1
  C  C780  1  0.24358692  0.23912237  0.61492042  1
  Cu  Cu781  1  0.23097183  0.25685649  0.67627425  1
  C  C782  1  0.27501271  0.24190352  0.60611910  1
  C  C783  1  0.28693564  0.22413180  0.58354806  1
  O  O784  1  0.24081482  0.22308770  0.68979420  1
  C  C785  1  0.31682918  0.22906400  0.57671422  1
  C  C786  1  0.29040086  0.26340533  0.62157921  1
  H  H787  1  0.27907578  0.27595650  0.64002274  1
  C  C788  1  0.32076569  0.26479846  0.61746852  1
  H  H789  1  0.28998969  0.25032679  0.71054955  1
  O  O790  1  0.32094644  0.19087091  0.53995588  1
  O  O791  1  0.21917492  0.20239304  0.72876083  1
  C  C792  1  0.23851544  0.21656559  0.71846880  1
  C  C793  1  0.28219376  0.24856745  0.73506801  1
  O  O794  1  0.20316723  0.32509183  0.69502913  1
  O  O795  1  0.32880005  0.29511464  0.65729941  1
  H  H796  1  0.18874554  0.21637319  0.50215419  1
  C  C797  1  0.25922032  0.23067315  0.74197140  1
  O  O798  1  0.33168581  0.28064115  0.72171521  1
  C  C799  1  0.33386993  0.21234705  0.55283250  1
  C  C800  1  0.33359919  0.24823645  0.59366018  1
  C  C801  1  0.34184015  0.28193030  0.63551652  1
  Cu  Cu802  1  0.33772954  0.31348251  0.69512515  1
  C  C803  1  0.37110346  0.17143115  0.64144267  1
  O  O804  1  0.35843408  0.21906985  0.54606723  1
  H  H805  1  0.35746697  0.24820552  0.58887578  1
  O  O806  1  0.37642874  0.20269697  0.68379627  1
  H  H807  1  0.36648230  0.18412504  0.59291068  1
  C  C808  1  0.37304770  0.19995021  0.65606786  1
  O  O809  1  0.37079875  0.22104434  0.63702112  1
  O  O810  1  0.36949633  0.28276049  0.62973307  1
  Cu  Cu811  1  0.39713725  0.25084523  0.63141237  1
  O  O812  1  0.44605768  0.26571567  0.57746298  1
  C  C813  1  0.43674890  0.28216168  0.59615325  1
  O  O814  1  0.42689576  0.27655545  0.62421846  1
  H  H815  1  0.46105232  0.30250264  0.53866388  1
  C  C816  1  0.43510824  0.31107891  0.58231437  1
  O  O817  1  0.37981493  0.31165578  0.69945369  1
  C  C818  1  0.44989579  0.31736709  0.55380132  1
  H  H819  1  0.47046840  0.31590646  0.69280000  1
  O  O820  1  0.48199202  0.27981450  0.73009167  1
  H  H821  1  0.40723895  0.32241441  0.62208209  1
  C  C822  1  0.41465048  0.32142587  0.73740333  1
  C  C823  1  0.49323367  0.32463670  0.69203223  1
  C  C824  1  0.39647475  0.33019668  0.70993727  1
  C  C825  1  0.41947442  0.32885926  0.60128181  1
  H  H826  1  0.39753837  0.28148707  0.74287149  1
  C  C827  1  0.13804701  0.33616698  0.60186113  1
  C  C828  1  0.02963205  0.34036755  0.50928170  1
  Cu  Cu829  1  0.09203581  0.34426572  0.71271945  1
  O  O830  1  0.01575812  0.48549829  0.64842771  1
  H  H831  1  0.01878414  0.37487502  0.54301582  1
  C  C832  1  0.08798737  0.34755646  0.52739958  1
  H  H833  1  0.02596465  0.35925939  0.66158451  1
  O  O834  1  0.14532210  0.36094750  0.60861194  1
  H  H835  1  0.11127355  0.35153792  0.53471845  1
  C  C836  1  0.02734742  0.38177094  0.65871169  1
  C  C837  1  0.03654189  0.47030611  0.65052816  1
  C  C838  1  0.03250579  0.43955367  0.65472810  1
  C  C839  1  0.06545788  0.36375818  0.54000883  1
  C  C840  1  0.07137838  0.38442136  0.56664288  1
  O  O841  1  0.08098553  0.35385202  0.67411162  1
  H  H842  1  0.07961387  0.43385966  0.65430517  1
  C  C843  1  0.05513481  0.39417707  0.65876006  1
  O  O844  1  0.10640570  0.38874296  0.65257067  1
  C  C845  1  0.08188367  0.37811002  0.66202607  1
  O  O846  1  0.05235358  0.39857406  0.57731328  1
  O  O847  1  0.09960413  0.38977886  0.57004078  1
  C  C848  1  0.05790511  0.42310117  0.65565997  1
  Cu  Cu849  1  0.11404195  0.39191205  0.60907116  1
  O  O850  1  0.11680244  0.43115578  0.60814433  1
  C  C851  1  0.03603577  0.36078125  0.53257389  1
  O  O852  1  0.06432268  0.48100316  0.65153491  1
  C  C853  1  0.13083612  0.44640777  0.58863810  1
  C  C854  1  0.15146151  0.46743277  0.60297581  1
  O  O855  1  0.12671930  0.44594572  0.55917333  1
  Cu  Cu856  1  0.10175232  0.43835325  0.52650429  1
  H  H857  1  0.14405402  0.45712815  0.65229361  1
  C  C858  1  0.15392106  0.47117329  0.63498908  1
  H  H859  1  0.11156128  0.47812197  0.74108352  1
  H  H860  1  0.16382008  0.47780788  0.55582606  1
  C  C861  1  0.16397015  0.42920890  0.50683959  1
  H  H862  1  0.13338795  0.49804103  0.50564020  1
  C  C863  1  0.00255941  0.39888286  0.65475666  1
  O  O864  1  0.16541924  0.48462892  0.69707640  1
  C  C865  1  0.00408338  0.42828659  0.65323572  1
  O  O866  1  0.03664691  0.41961141  0.50527276  1
  O  O867  1  0.13781046  0.43782223  0.50265629  1
  Cu  Cu868  1  0.17456634  0.49729068  0.73769750  1
  H  H869  1  0.17006319  0.33998760  0.65303625  1
  C  C870  1  0.16742367  0.48302177  0.58092984  1
  C  C871  1  0.17334431  0.49364813  0.64263167  1
  Cu  Cu872  1  0.19322572  0.35245502  0.72713189  1
  O  O873  1  0.29907114  0.48815646  0.69531601  1
  O  O874  1  0.18084648  0.44109364  0.52585587  1
  C  C875  1  0.32140770  0.47820213  0.58194904  1
  C  C876  1  0.30441454  0.46013845  0.56413905  1
  C  C877  1  0.28225097  0.47261280  0.54585604  1
  O  O878  1  0.30314048  0.44372053  0.65940833  1
  C  C879  1  0.27551266  0.43817932  0.66526585  1
  C  C880  1  0.28864148  0.39736914  0.70188554  1
  C  C881  1  0.26886889  0.41674861  0.69164160  1
  C  C882  1  0.26406358  0.45345699  0.52807065  1
  O  O883  1  0.26799425  0.42793921  0.52884163  1
  O  O884  1  0.25555469  0.44944517  0.65173435  1
  H  H885  1  0.30991911  0.39279836  0.69067363  1
  H  H886  1  0.30780163  0.43647457  0.56713611  1
  Cu  Cu887  1  0.32009496  0.48072559  0.66163096  1
  C  C888  1  0.24143277  0.41888125  0.70633322  1
  H  H889  1  0.22646798  0.43422928  0.69823478  1
  C  C890  1  0.27902996  0.37659215  0.72334523  1
  H  H891  1  0.21595363  0.40424855  0.51298144  1
  C  C892  1  0.29693823  0.35205025  0.72717596  1
  Cu  Cu893  1  0.20471139  0.47463429  0.52190548  1
  C  C894  1  0.23378007  0.40019744  0.73069588  1
  O  O895  1  0.19125951  0.42669621  0.74152712  1
  O  O896  1  0.31947458  0.34660306  0.70965721  1
  C  C897  1  0.25198611  0.37762593  0.73961825  1
  O  O898  1  0.26055831  0.37540118  0.50030002  1
  C  C899  1  0.17973128  0.49956307  0.67692335  1
  O  O900  1  0.24349387  0.46375289  0.50947005  1
  C  C901  1  0.20496668  0.40424203  0.74638049  1
  H  H902  1  0.31518611  0.49941750  0.74938293  1
  O  O903  1  0.28868972  0.33522064  0.74865723  1
  C  C904  1  0.40015683  0.37732151  0.60793643  1
  O  O905  1  0.48285623  0.33718967  0.50418249  1
  H  H906  1  0.45747863  0.43954803  0.71775448  1
  O  O907  1  0.38671108  0.43513372  0.66399358  1
  C  C908  1  0.47752666  0.36582410  0.65685247  1
  C  C909  1  0.46521534  0.35397821  0.51764114  1
  C  C910  1  0.40057481  0.48260741  0.69620872  1
  O  O911  1  0.46190696  0.37868002  0.50721730  1
  C  C912  1  0.41738647  0.35716818  0.59024866  1
  H  H913  1  0.38268724  0.48427178  0.67940683  1
  O  O914  1  0.44918721  0.35782338  0.65740313  1
  C  C915  1  0.45008255  0.34499088  0.54624163  1
  O  O916  1  0.34800613  0.47856010  0.62967493  1
  O  O917  1  0.39962159  0.40276770  0.59841063  1
  Cu  Cu918  1  0.38056952  0.42581571  0.62401496  1
  O  O919  1  0.39025672  0.37029684  0.63419981  1
  H  H920  1  0.43748232  0.36124505  0.73533601  1
  O  O921  1  0.35276027  0.44261349  0.59757749  1
  C  C922  1  0.44268270  0.45822349  0.71892549  1
  C  C923  1  0.40940541  0.43325277  0.68187244  1
  C  C924  1  0.44878638  0.48183753  0.73653850  1
  C  C925  1  0.43418338  0.36450188  0.56447948  1
  O  O926  1  0.48673187  0.38672242  0.64608905  1
  H  H927  1  0.43087589  0.38582674  0.55439215  1
  O  O928  1  0.39728319  0.35502982  0.70088319  1
  C  C929  1  0.34381376  0.46627930  0.60400230  1
  Cu  Cu930  1  0.41334048  0.37446383  0.66861110  1
  C  C931  1  0.41774599  0.45891355  0.69908032  1
  O  O932  1  0.42425638  0.41143502  0.68331542  1
  C  C933  1  0.43566493  0.34128704  0.74801959  1
  O  O934  1  0.10256628  0.06553663  0.87891258  1
  Cu  Cu935  1  0.13523649  0.06873183  0.90391861  1
  C  C936  1  0.05656681  0.07689494  0.90038863  1
  C  C937  1  0.06296248  0.10547005  0.90092549  1
  C  C938  1  0.03578811  0.02318366  0.80279979  1
  C  C939  1  0.07893561  0.05659420  0.89094484  1
  O  O940  1  0.07508953  0.03033518  0.89221718  1
  O  O941  1  0.11886235  0.09567340  0.93684809  1
  C  C942  1  0.12784728  0.11974060  0.94454811  1
  H  H943  1  0.08635124  0.11275171  0.89751413  1
  C  C944  1  0.04092909  0.12501242  0.90516028  1
  O  O945  1  0.13511370  0.03664755  0.92950681  1
  O  O946  1  0.16084678  0.04447152  0.84006453  1
  C  C947  1  0.04059838  0.04425270  0.78051513  1
  H  H948  1  0.06090093  0.05561339  0.77847006  1
  C  C949  1  0.13880987  0.01205341  0.92164350  1
  C  C950  1  0.06165552  0.01695703  0.82296375  1
  O  O951  1  0.08068081  0.03591736  0.82048989  1
  Cu  Cu952  1  0.12138807  0.03664581  0.83116821  1
  C  C953  1  0.02750706  0.06834154  0.90673102  1
  C  C954  1  0.12766419  0.01453140  0.77079134  1
  O  O955  1  0.13290067  0.01180716  0.80032253  1
  C  C956  1  0.13353646  0.12198125  0.97794064  1
  O  O957  1  0.13085647  0.14143264  0.92925621  1
  H  H958  1  0.02087771  0.04690005  0.90551821  1
  H  H959  1  0.13380808  0.02027564  0.98015447  1
  Cu  Cu960  1  0.09646759  0.00170056  0.87105534  1
  C  C961  1  0.14609564  0.00190108  0.97587065  1
  C  C962  1  0.01740718  0.05161113  0.76029669  1
  H  H963  1  0.10650545  0.08405786  0.98514674  1
  C  C964  1  0.01227812  0.11793906  0.91246629  1
  C  C965  1  0.14825256  0.14476377  0.99075120  1
  O  O966  1  0.12469080  0.03582413  0.75702613  1
  C  C967  1  0.04949798  0.15580796  0.90284799  1
  H  H968  1  0.15713574  0.16061240  0.97433987  1
  C  C969  1  0.00952195  0.00866775  0.80532596  1
  C  C970  1  0.00693748  0.08896970  0.91378272  1
  C  C971  1  0.12065946  0.10128040  0.99725628  1
  O  O972  1  0.13368719  0.00377637  0.89330321  1
  O  O973  1  0.07783389  0.15940678  0.89980384  1
  Cu  Cu974  1  0.09891377  0.16533467  0.93830043  1
  O  O975  1  0.16686794  0.07805685  0.87582711  1
  C  C976  1  0.17265654  0.06667561  0.84984131  1
  H  H977  1  0.18349199  0.05010757  0.79457952  1
  C  C978  1  0.19732943  0.07786097  0.83129676  1
  C  C979  1  0.20139355  0.06524455  0.80145732  1
  H  H980  1  0.21423330  0.10888579  0.86629601  1
  C  C981  1  0.21502731  0.09975823  0.84283221  1
  C  C982  1  0.23437709  0.11038897  0.82105216  1
  C  C983  1  0.24051146  0.09879490  0.79116481  1
  C  C984  1  0.22369374  0.07567475  0.78199464  1
  H  H985  1  0.25804704  0.10721324  0.77684366  1
  C  C986  1  0.25265047  0.13379860  0.83140966  1
  O  O987  1  0.27655955  0.13848590  0.81738037  1
  O  O988  1  0.30302725  0.05414370  0.94966242  1
  H  H989  1  0.30164996  0.03189103  0.89802023  1
  Cu  Cu990  1  0.31130089  0.11649417  0.82461838  1
  C  C991  1  0.29724631  0.03050031  0.96161050  1
  C  C992  1  0.29250055  0.01245639  0.90725223  1
  O  O993  1  0.28687716  0.01811424  0.83889792  1
  Cu  Cu994  1  0.29065699  0.08716804  0.97062271  1
  O  O995  1  0.30453405  0.09222764  0.79120152  1
  Cu  Cu996  1  0.28769812  0.03303404  0.80090023  1
  O  O997  1  0.24474140  0.14653299  0.85640621  1
  C  C998  1  0.28898756  0.00841930  0.93954303  1
  O  O999  1  0.31936107  0.13772057  0.86009933  1
  O  O1000  1  0.27989457  0.11914416  0.99088643  1
  O  O1001  1  0.30061685  0.02544075  0.99033306  1
  O  O1002  1  0.28602346  0.02041632  0.75825166  1
  O  O1003  1  0.32430734  0.11409913  0.90506812  1
  H  H1004  1  0.27758476  0.15191146  0.94678218  1
  C  C1005  1  0.30511485  0.16385424  0.98721943  1
  C  C1006  1  0.32606999  0.07556559  0.79202704  1
  O  O1007  1  0.32368120  0.04925819  0.79355001  1
  C  C1008  1  0.33341715  0.12969333  0.88387300  1
  Cu  Cu1009  1  0.33893072  0.10376751  0.94711260  1
  H  H1010  1  0.33921021  0.12401593  0.76935703  1
  C  C1011  1  0.40754684  0.00426915  0.94628723  1
  O  O1012  1  0.36187523  0.08962209  0.97958384  1
  O  O1013  1  0.44907014  0.03068960  0.92532277  1
  C  C1014  1  0.35703536  0.11477034  0.78265082  1
  C  C1015  1  0.35569979  0.08792294  0.79577603  1
  Cu  Cu1016  1  0.48986864  0.02441783  0.94153781  1
  C  C1017  1  0.42642572  0.02852252  0.94265365  1
  C  C1018  1  0.36527232  0.13915299  0.88203048  1
  H  H1019  1  0.37759248  0.10738582  0.91765729  1
  C  C1020  1  0.38467299  0.12530536  0.90267223  1
  C  C1021  1  0.41447580  0.13268197  0.90011190  1
  C  C1022  1  0.43608346  0.11583383  0.91799215  1
  O  O1023  1  0.46315083  0.11883730  0.91434976  1
  O  O1024  1  0.42500868  0.09897434  0.93822772  1
  O  O1025  1  0.41970793  0.04889823  0.96074348  1
  C  C1026  1  0.37782666  0.07523756  0.81272064  1
  C  C1027  1  0.40360684  0.09127746  0.81607654  1
  H  H1028  1  0.37567972  0.05398519  0.82232106  1
  C  C1029  1  0.40596177  0.11917969  0.80563605  1
  Cu  Cu1030  1  0.47485539  0.11096700  0.87452244  1
  Cu  Cu1031  1  0.44464215  0.07991289  0.96868976  1
  C  C1032  1  0.38372883  0.12882842  0.78567555  1
  O  O1033  1  0.42938100  0.05889260  0.84429649  1
  C  C1034  1  0.43077487  0.08241393  0.83392560  1
  O  O1035  1  0.45366429  0.09811860  0.83992059  1
  H  H1036  1  0.42548390  0.13078823  0.81449794  1
  O  O1037  1  0.48523153  0.02048243  0.98322235  1
  H  H1038  1  0.38786675  0.01808348  0.99101290  1
  O  O1039  1  0.49319068  0.13937143  0.85418553  1
  H  H1040  1  0.38901161  0.12776348  0.99625426  1
  C  C1041  1  0.39031047  0.00096737  0.97273074  1
  C  C1042  1  0.42461330  0.15544824  0.88373852  1
  C  C1043  1  0.38575444  0.15870025  0.77307732  1
  C  C1044  1  0.37612338  0.15841644  0.86064560  1
  H  H1045  1  0.44820301  0.16241763  0.88801752  1
  O  O1046  1  0.36536463  0.16546069  0.75672053  1
  C  C1047  1  0.49497134  0.03716611  0.76121976  1
  O  O1048  1  0.15867229  0.16876463  0.85887488  1
  O  O1049  1  0.08251060  0.18214555  0.76692776  1
  H  H1050  1  0.00374508  0.27665096  0.84737150  1
  C  C1051  1  0.01584895  0.26892309  0.98800963  1
  O  O1052  1  0.02678697  0.27070216  0.95943190  1
  C  C1053  1  0.01941458  0.28897808  0.83424005  1
  C  C1054  1  0.06139379  0.19076100  0.77983730  1
  O  O1055  1  0.03294670  0.17448060  0.90752009  1
  O  O1056  1  0.06228527  0.20276513  0.80706037  1
  C  C1057  1  0.15298041  0.19273435  0.85972553  1
  O  O1058  1  0.03276546  0.28287172  0.89923420  1
  C  C1059  1  0.10873836  0.27121183  0.78884128  1
  O  O1060  1  0.11986544  0.28273264  0.84099760  1
  O  O1061  1  0.13863066  0.20741891  0.83857051  1
  Cu  Cu1062  1  0.10025961  0.20689072  0.82337970  1
  C  C1063  1  0.10905541  0.26541399  0.82254012  1
  O  O1064  1  0.09202354  0.24614087  0.83141426  1
  O  O1065  1  0.15460302  0.29430810  0.89265470  1
  Cu  Cu1066  1  0.11198263  0.29206832  0.88324392  1
  H  H1067  1  0.14689086  0.29687991  0.79076564  1
  C  C1068  1  0.13108607  0.28838463  0.77575105  1
  C  C1069  1  0.04444121  0.30153785  0.84823824  1
  O  O1070  1  0.07539887  0.30405355  0.89077868  1
  C  C1071  1  0.05074723  0.29517209  0.88106155  1
  H  H1072  1  0.04661479  0.22734977  0.96573285  1
  C  C1073  1  0.06396770  0.31788390  0.83055754  1
  O  O1074  1  0.07492908  0.18392058  0.96307332  1
  C  C1075  1  0.03140230  0.31118204  0.78576058  1
  H  H1076  1  0.06739834  0.24813605  0.78645099  1
  C  C1077  1  0.08457393  0.26059088  0.77236610  1
  C  C1078  1  0.05717934  0.32301598  0.79884114  1
  H  H1079  1  0.15169370  0.24671244  0.86655860  1
  H  H1080  1  0.02701297  0.31827406  0.76085778  1
  C  C1081  1  0.01411854  0.29242221  0.80263818  1
  C  C1082  1  0.16198865  0.23801882  0.88809408  1
  C  C1083  1  0.03206583  0.18761424  0.76087074  1
  Cu  Cu1084  1  0.01276488  0.29835919  0.93492791  1
  C  C1085  1  0.00368979  0.19021434  0.77213191  1
  C  C1086  1  0.06646531  0.17893891  0.99255189  1
  C  C1087  1  0.04169121  0.22479262  0.99146233  1
  C  C1088  1  0.16370050  0.20929914  0.88799428  1
  C  C1089  1  0.16594300  0.28286573  0.91665279  1
  H  H1090  1  0.08502283  0.32567326  0.84014286  1
  O  O1091  1  0.00038590  0.28620166  0.99895821  1
  C  C1092  1  0.29333681  0.16710682  0.95692833  1
  H  H1093  1  0.18129420  0.17321562  0.90936318  1
  O  O1094  1  0.21406759  0.17157438  0.95585746  1
  O  O1095  1  0.17118340  0.29653546  0.94183592  1
  C  C1096  1  0.17195581  0.25270201  0.91448070  1
  C  C1097  1  0.17716993  0.19573867  0.91270080  1
  C  C1098  1  0.18410518  0.23919342  0.94092162  1
  C  C1099  1  0.18847641  0.21116427  0.93833511  1
  Cu  Cu1100  1  0.24953843  0.18612833  0.86108933  1
  H  H1101  1  0.19290085  0.24967718  0.96205368  1
  C  C1102  1  0.20881286  0.19559919  0.96073739  1
  O  O1103  1  0.27258697  0.18202057  0.89795334  1
  C  C1104  1  0.30055761  0.19270641  0.94339710  1
  O  O1105  1  0.21807847  0.20908058  0.98489880  1
  H  H1106  1  0.23237144  0.21081867  0.77576922  1
  C  C1107  1  0.28821652  0.19982802  0.91276440  1
  O  O1108  1  0.29342090  0.22454428  0.90430809  1
  O  O1109  1  0.24101598  0.21589200  0.83690634  1
  O  O1110  1  0.27196847  0.24772164  0.85216935  1
  C  C1111  1  0.25938968  0.23505636  0.83069662  1
  C  C1112  1  0.28904481  0.25815681  0.79037746  1
  Cu  Cu1113  1  0.26384754  0.25103565  0.89587024  1
  C  C1114  1  0.26684584  0.23898532  0.79702550  1
  C  C1115  1  0.25157363  0.22510906  0.77323110  1
  H  H1116  1  0.30025259  0.26919863  0.81080363  1
  C  C1117  1  0.28122077  0.29555116  0.93559959  1
  O  O1118  1  0.27373011  0.27007381  0.93353108  1
  O  O1119  1  0.26622122  0.31434869  0.94922982  1
  C  C1120  1  0.31785885  0.21316550  0.95912301  1
  C  C1121  1  0.30877136  0.30235660  0.91943516  1
  C  C1122  1  0.29734360  0.26226755  0.75948549  1
  H  H1123  1  0.31807630  0.25800945  0.90834965  1
  Cu  Cu1124  1  0.19281286  0.33018389  0.94000522  1
  Cu  Cu1125  1  0.26356412  0.32778668  0.99294789  1
  O  O1126  1  0.19755814  0.33131556  0.98401303  1
  Cu  Cu1127  1  0.30849011  0.32610887  0.78605241  1
  O  O1128  1  0.27587227  0.32696699  0.85217101  1
  H  H1129  1  0.32202427  0.23327942  0.94941966  1
  O  O1130  1  0.33150257  0.29836265  0.76869527  1
  C  C1131  1  0.32637900  0.27991836  0.90715958  1
  C  C1132  1  0.32889643  0.20807570  0.98870446  1
  C  C1133  1  0.31754635  0.32997566  0.91806295  1
  C  C1134  1  0.32252823  0.28008102  0.75030282  1
  H  H1135  1  0.36026363  0.16917374  0.84445632  1
  C  C1136  1  0.40440490  0.16976897  0.86456965  1
  O  O1137  1  0.40816505  0.17376928  0.77976723  1
  O  O1138  1  0.43448197  0.20832897  0.85605818  1
  C  C1139  1  0.41195558  0.19564282  0.84866434  1
  O  O1140  1  0.39373228  0.20392699  0.82728942  1
  Cu  Cu1141  1  0.40734663  0.21127435  0.78684350  1
  C  C1142  1  0.35390503  0.28832484  0.89444415  1
  O  O1143  1  0.45286608  0.27009804  0.88944411  1
  O  O1144  1  0.44163077  0.25756447  0.81931739  1
  Cu  Cu1145  1  0.43228658  0.24725028  0.86254323  1
  O  O1146  1  0.35831828  0.24195298  0.88126676  1
  C  C1147  1  0.36994733  0.26459037  0.87941400  1
  C  C1148  1  0.45839224  0.26949483  0.95417244  1
  H  H1149  1  0.43611271  0.27385553  0.94449031  1
  C  C1150  1  0.42574375  0.26586346  0.79741101  1
  C  C1151  1  0.43167375  0.29111995  0.77781962  1
  O  O1152  1  0.39530411  0.26770831  0.86441067  1
  O  O1153  1  0.40568489  0.24917891  0.78787017  1
  H  H1154  1  0.46939987  0.30439589  0.80803984  1
  C  C1155  1  0.45466466  0.30857254  0.78762884  1
  C  C1156  1  0.48016294  0.26769635  0.90015155  1
  C  C1157  1  0.48437210  0.26694319  0.93574461  1
  C  C1158  1  0.36433541  0.31538321  0.89266079  1
  C  C1159  1  0.45952333  0.26498175  0.98612598  1
  H  H1160  1  0.38469590  0.32022598  0.88067873  1
  O  O1161  1  0.40805340  0.27547668  0.99206842  1
  O  O1162  1  0.35749541  0.24894138  0.98819424  1
  C  C1163  1  0.41249264  0.29625023  0.75239964  1
  C  C1164  1  0.15444751  0.49952166  0.92665943  1
  C  C1165  1  0.07736252  0.33901060  0.78000526  1
  H  H1166  1  0.03320666  0.34499818  0.89222842  1
  C  C1167  1  0.02096149  0.35210363  0.87073313  1
  O  O1168  1  0.03279672  0.46487792  0.92900659  1
  O  O1169  1  0.09928512  0.34852869  0.79537958  1
  C  C1170  1  0.01922827  0.37297004  0.81781944  1
  C  C1171  1  0.03646529  0.48254381  0.84085822  1
  C  C1172  1  0.05740457  0.48102394  0.81431386  1
  O  O1173  1  0.09053378  0.48924559  0.88932420  1
  H  H1174  1  0.12810647  0.48222645  0.96378828  1
  Cu  Cu1175  1  0.06149256  0.46114977  0.89720877  1
  H  H1176  1  0.03083803  0.38501611  0.79786327  1
  O  O1177  1  0.07509166  0.39467288  0.82761607  1
  C  C1178  1  0.06388978  0.38065084  0.85141589  1
  O  O1179  1  0.07814099  0.37858514  0.87485782  1
  H  H1180  1  0.08143264  0.44395448  0.83140242  1
  C  C1181  1  0.07842579  0.45985950  0.81236450  1
  Cu  Cu1182  1  0.10932989  0.38538966  0.80181613  1
  C  C1183  1  0.03374272  0.36821042  0.84660130  1
  O  O1184  1  0.03798271  0.46206012  0.85963898  1
  H  H1185  1  0.13516446  0.48691074  0.84917573  1
  O  O1186  1  0.11986354  0.42173705  0.80653814  1
  C  C1187  1  0.09618364  0.46087583  0.78498301  1
  C  C1188  1  0.11893565  0.43834546  0.78398398  1
  C  C1189  1  0.09564086  0.48042462  0.76045182  1
  C  C1190  1  0.01508052  0.48387615  0.93496894  1
  O  O1191  1  0.13684776  0.43697095  0.76176011  1
  O  O1192  1  0.15965333  0.45079275  0.92893546  1
  O  O1193  1  0.16189903  0.47712937  0.80193117  1
  O  O1194  1  0.07162914  0.34459894  0.75111185  1
  C  C1195  1  0.16860891  0.47288072  0.91681390  1
  O  O1196  1  0.17342819  0.44507829  0.99010738  1
  Cu  Cu1197  1  0.17406268  0.45312832  0.76970702  1
  Cu  Cu1198  1  0.17613776  0.42328137  0.95658113  1
  O  O1199  1  0.18572913  0.47263662  0.89349413  1
  O  O1200  1  0.18185770  0.40072347  0.92088655  1
  H  H1201  1  0.24259079  0.34681753  0.88761153  1
  C  C1202  1  0.27425355  0.34746710  0.83724168  1
  O  O1203  1  0.28560256  0.35074151  0.80949640  1
  H  H1204  1  0.30383448  0.34629686  0.92844564  1
  O  O1205  1  0.20990447  0.36357371  0.93318583  1
  C  C1206  1  0.23859137  0.36665075  0.87543713  1
  C  C1207  1  0.25368605  0.37140223  0.84757696  1
  C  C1208  1  0.20267053  0.38343427  0.91554451  1
  H  H1209  1  0.19768758  0.42742669  0.87675399  1
  C  C1210  1  0.21916411  0.38739499  0.88571596  1
  C  C1211  1  0.21481183  0.41165853  0.86799480  1
  O  O1212  1  0.22542013  0.46595921  0.84633606  1
  Cu  Cu1213  1  0.22723018  0.46930953  0.89451558  1
  O  O1214  1  0.26963743  0.46415333  0.89941918  1
  C  C1215  1  0.28207330  0.44250041  0.90994196  1
  C  C1216  1  0.25195679  0.39578384  0.83106414  1
  H  H1217  1  0.26639948  0.40048349  0.81075711  1
  C  C1218  1  0.23345352  0.41689261  0.84295139  1
  O  O1219  1  0.24981425  0.44924106  0.80628937  1
  C  C1220  1  0.23413625  0.44590751  0.83067833  1
  C  C1221  1  0.28011430  0.43743357  0.94392447  1
  Cu  Cu1222  1  0.28569289  0.47015209  0.80485628  1
  H  H1223  1  0.28757719  0.39250091  0.93865616  1
  C  C1224  1  0.28544587  0.41060550  0.95462430  1
  C  C1225  1  0.27622828  0.46061623  0.96261217  1
  O  O1226  1  0.29889519  0.42762617  0.89324326  1
  H  H1227  1  0.27463339  0.48218714  0.95466840  1
  O  O1228  1  0.30924124  0.43713504  0.80529951  1
  O  O1229  1  0.29192580  0.35578508  0.98539754  1
  C  C1230  1  0.28589714  0.40667691  0.98689300  1
  O  O1231  1  0.31932362  0.49433035  0.80827800  1
  O  O1232  1  0.21584855  0.46663355  0.99273340  1
  C  C1233  1  0.27976269  0.45579826  0.99506859  1
  O  O1234  1  0.19419890  0.38251971  0.75689793  1
  H  H1235  1  0.24531724  0.36347916  0.75904710  1
  O  O1236  1  0.33217782  0.38445270  0.91048489  1
  C  C1237  1  0.35139381  0.36594275  0.89950117  1
  C  C1238  1  0.38073921  0.45129074  0.86146037  1
  O  O1239  1  0.33829805  0.42875624  0.76498704  1
  C  C1240  1  0.33520195  0.43387794  0.79240385  1
  O  O1241  1  0.35136119  0.45708711  0.90595983  1
  C  C1242  1  0.34482667  0.33570001  0.90348203  1
  H  H1243  1  0.38919078  0.43184898  0.99182638  1
  C  C1244  1  0.45594758  0.33338273  0.77027962  1
  O  O1245  1  0.37368646  0.37415342  0.88747613  1
  O  O1246  1  0.48455281  0.37404704  0.75986417  1
  C  C1247  1  0.36259032  0.43659123  0.81220942  1
  C  C1248  1  0.37732646  0.46124067  0.89416002  1
  H  H1249  1  0.42954616  0.45214562  0.86812526  1
  C  C1250  1  0.49224161  0.33933014  0.91938746  1
  O  O1251  1  0.49565284  0.34983102  0.80205345  1
  O  O1252  1  0.39806081  0.47171032  0.90921031  1
  C  C1253  1  0.45047821  0.34603019  0.95728482  1
  C  C1254  1  0.41513788  0.43642059  0.82208180  1
  O  O1255  1  0.44464446  0.35205091  0.98626239  1
  Cu  Cu1256  1  0.47401321  0.48142786  0.81729209  1
  H  H1257  1  0.33415915  0.45117528  0.85282972  1
  O  O1258  1  0.49644654  0.48995180  0.85059034  1
  C  C1259  1  0.48234557  0.33983055  0.94989449  1
  H  H1260  1  0.47783492  0.34172072  0.89959047  1
  Cu  Cu1261  1  0.49015673  0.41227986  0.77253899  1
  C  C1262  1  0.44595640  0.43149599  0.81302078  1
  O  O1263  1  0.49512713  0.46423191  0.75468950  1
  C  C1264  1  0.35642809  0.44616176  0.84301279  1
  O  O1265  1  0.43311347  0.34808846  0.93612452  1
  O  O1266  1  0.45210239  0.41578313  0.78980992  1
  C  C1267  1  0.48014199  0.35363049  0.77882999  1
  H  H1268  1  0.39534414  0.42495096  0.77713806  1
  Cu  Cu1269  1  0.40091638  0.49906529  0.94068170  1
  C  C1270  1  0.39117170  0.43049648  0.80183643  1
  C  C1271  1  0.41014969  0.44728757  0.85195518  1
  C  C1272  1  0.47512670  0.48290937  0.75669623  1
  O  O1273  1  0.46667687  0.44379184  0.82783044  1
  O  O1274  1  0.47540819  0.49991788  0.77915647  1
  Cu  Cu1275  1  0.33775263  0.42029462  0.90758757  1
  O  O1276  1  0.40925999  0.47219777  0.97228596  1
  C  C1277  1  0.42214837  0.47894058  0.99947347  1
  H  H1278  1  0.49237300  0.33439051  0.99720785  1
  O  O1279  1  0.44060865  0.49586830  0.99968618  1
  C  C1280  1  0.02830338  0.53819945  0.05469457  1
  C  C1281  1  0.08205686  0.63275258  0.10970567  1
  O  O1282  1  0.08515888  0.59470080  0.03560517  1
  C  C1283  1  0.08425712  0.60457540  0.10179545  1
  C  C1284  1  0.12941726  0.60222389  0.13328855  1
  H  H1285  1  0.06779852  0.59390871  0.08743743  1
  C  C1286  1  0.11074791  0.59150175  0.10980820  1
  C  C1287  1  0.12334872  0.62913712  0.14344426  1
  C  C1288  1  0.02404590  0.53268588  0.08837722  1
  O  O1289  1  0.10328325  0.55180981  0.07653966  1
  C  C1290  1  0.11863327  0.56461310  0.09688296  1
  C  C1291  1  0.10027533  0.64592292  0.13147892  1
  C  C1292  1  0.14124314  0.64048770  0.17094129  1
  Cu  Cu1293  1  0.09482989  0.55436662  0.03389123  1
  O  O1294  1  0.04085091  0.63870324  0.07603719  1
  C  C1295  1  0.05654865  0.64797319  0.09721938  1
  H  H1296  1  0.13624159  0.59801453  0.05926531  1
  O  O1297  1  0.04903217  0.52655068  0.03979899  1
  C  C1298  1  0.14595657  0.60992853  0.03909395  1
  O  O1299  1  0.14344870  0.55392261  0.10598147  1
  O  O1300  1  0.05850727  0.62317450  0.18346506  1
  H  H1301  1  0.14670831  0.58955273  0.14266008  1
  C  C1302  1  0.04313116  0.51331875  0.10214265  1
  C  C1303  1  0.04401812  0.64034757  0.19818761  1
  C  C1304  1  0.01423229  0.52011875  0.14931558  1
  C  C1305  1  0.12749776  0.61983831  0.01538726  1
  C  C1306  1  0.09549546  0.61408812  0.01915390  1
  C  C1307  1  0.05161238  0.64466423  0.23334000  1
  Cu  Cu1308  1  0.04425227  0.64696301  0.02734682  1
  H  H1309  1  0.00881869  0.51407226  0.17354204  1
  O  O1310  1  0.13993088  0.66387661  0.17945830  1
  H  H1311  1  0.09156950  0.61938379  0.22799661  1
  C  C1312  1  0.03817419  0.50670213  0.13328935  1
  O  O1313  1  0.14254200  0.50575345  0.17476907  1
  O  O1314  1  0.01222533  0.55706617  0.04185291  1
  O  O1315  1  0.00180604  0.63895142  0.01550067  1
  O  O1316  1  0.07753248  0.63072829  0.00574255  1
  O  O1317  1  0.15877361  0.62204853  0.18503550  1
  C  C1318  1  0.00058413  0.54668702  0.10382693  1
  O  O1319  1  0.02519758  0.65639383  0.18461005  1
  Cu  Cu1320  1  0.01845862  0.66189701  0.13994723  1
  H  H1321  1  0.06029636  0.50234421  0.08895313  1
  C  C1322  1  0.07793954  0.63192040  0.24394373  1
  O  O1323  1  0.09648693  0.50605716  0.00037484  1
  C  C1324  1  0.17640551  0.61607362  0.03641798  1
  H  H1325  1  0.17893777  0.54598320  0.18115969  1
  O  O1326  1  0.24855746  0.56250477  0.08476781  1
  H  H1327  1  0.26922287  0.53550797  0.21423456  1
  O  O1328  1  0.22124657  0.61050804  0.06598490  1
  C  C1329  1  0.19349310  0.60714823  0.06457550  1
  Cu  Cu1330  1  0.24644218  0.59887579  0.10234653  1
  O  O1331  1  0.18355556  0.59028188  0.08434355  1
  O  O1332  1  0.25429195  0.58400482  0.19765334  1
  C  C1333  1  0.22940954  0.57320632  0.19019239  1
  O  O1334  1  0.20746462  0.58797932  0.18194720  1
  Cu  Cu1335  1  0.20162490  0.62553874  0.18721227  1
  C  C1336  1  0.24192685  0.64810529  0.23165014  1
  C  C1337  1  0.22519636  0.54399289  0.19724175  1
  C  C1338  1  0.25112651  0.56759248  0.03271135  1
  C  C1339  1  0.19642998  0.53366486  0.19260849  1
  C  C1340  1  0.24795967  0.52681286  0.20894902  1
  C  C1341  1  0.23598909  0.55472334  0.05991237  1
  Cu  Cu1342  1  0.17907668  0.55006491  0.08298485  1
  O  O1343  1  0.21141868  0.54298162  0.05896431  1
  O  O1344  1  0.23272339  0.64691387  0.20346702  1
  O  O1345  1  0.24569310  0.63448173  0.12304995  1
  C  C1346  1  0.27946423  0.57806628  0.03594988  1
  H  H1347  1  0.29088209  0.57531052  0.05890422  1
  C  C1348  1  0.22113571  0.64799102  0.12563960  1
  O  O1349  1  0.20415868  0.64691291  0.14825289  1
  H  H1350  1  0.21196881  0.63306760  0.01095412  1
  C  C1351  1  0.18780261  0.63096640  0.01115013  1
  Cu  Cu1352  1  0.25629709  0.59252529  0.23726050  1
  C  C1353  1  0.29508617  0.58830591  0.00983182  1
  C  C1354  1  0.19305968  0.50623490  0.20119953  1
  C  C1355  1  0.23674522  0.56859049  0.00349997  1
  O  O1356  1  0.28099088  0.50307772  0.00873904  1
  C  C1357  1  0.32753929  0.59583231  0.01121662  1
  O  O1358  1  0.23912796  0.62731397  0.24943239  1
  H  H1359  1  0.16935622  0.66588625  0.11912468  1
  C  C1360  1  0.21360381  0.66447757  0.09746529  1
  H  H1361  1  0.25454076  0.66184016  0.07163010  1
  C  C1362  1  0.49146603  0.53684339  0.10972735  1
  O  O1363  1  0.34188571  0.59079731  0.03342658  1
  C  C1364  1  0.46613241  0.55914651  0.06542455  1
  C  C1365  1  0.38918988  0.52383751  0.16695928  1
  C  C1366  1  0.38964334  0.51897863  0.19974346  1
  O  O1367  1  0.41517705  0.54388331  0.12431527  1
  O  O1368  1  0.36897329  0.60983011  0.15565537  1
  H  H1369  1  0.40592264  0.52953550  0.21425802  1
  O  O1370  1  0.43674257  0.54463240  0.17026291  1
  O  O1371  1  0.37911646  0.59476226  0.10685860  1
  C  C1372  1  0.37087700  0.61294112  0.12803780  1
  O  O1373  1  0.45734465  0.57763977  0.08495054  1
  C  C1374  1  0.41379362  0.53959373  0.15314181  1
  Cu  Cu1375  1  0.41674048  0.57992481  0.10266188  1
  H  H1376  1  0.37241320  0.63036903  0.06617181  1
  H  H1377  1  0.47510706  0.54381791  0.12559992  1
  O  O1378  1  0.45797833  0.55838534  0.03736045  1
  Cu  Cu1379  1  0.46048657  0.51446132  0.17745465  1
  C  C1380  1  0.36434228  0.64089502  0.11373347  1
  C  C1381  1  0.36516631  0.64740473  0.08183498  1
  H  H1382  1  0.36564767  0.52137997  0.12223615  1
  C  C1383  1  0.36711141  0.51377268  0.14627554  1
  C  C1384  1  0.48988511  0.54142795  0.07821795  1
  O  O1385  1  0.36835389  0.66093686  0.01700829  1
  C  C1386  1  0.36680579  0.50228413  0.21158635  1
  H  H1387  1  0.35818920  0.66107199  0.15871578  1
  H  H1388  1  0.43335270  0.51322999  0.23711567  1
  C  C1389  1  0.45610339  0.51749163  0.24176333  1
  Cu  Cu1390  1  0.47729526  0.57768732  0.00414064  1
  C  C1391  1  0.35750849  0.66343494  0.13307117  1
  H  H1392  1  0.09699415  0.66801049  0.13890189  1
  O  O1393  1  0.04923039  0.66970172  0.11317710  1
  O  O1394  1  0.12441551  0.68670051  0.09746009  1
  C  C1395  1  0.04578145  0.71119698  0.02115164  1
  O  O1396  1  0.07233778  0.71604547  0.02902367  1
  O  O1397  1  0.12930606  0.71252011  0.05569162  1
  Cu  Cu1398  1  0.11101533  0.70050676  0.01806215  1
  C  C1399  1  0.13940881  0.69559496  0.07607224  1
  C  C1400  1  0.14206134  0.80864672  0.19974294  1
  H  H1401  1  0.12267941  0.81175915  0.21497291  1
  O  O1402  1  0.03418527  0.68768998  0.02304400  1
  C  C1403  1  0.14380148  0.81885838  0.16932863  1
  H  H1404  1  0.06636805  0.76153078  0.01106859  1
  C  C1405  1  0.04357240  0.76017126  0.00417685  1
  C  C1406  1  0.02819968  0.73474331  0.00879865  1
  H  H1407  1  0.01098598  0.66691522  0.24032552  1
  C  C1408  1  0.16691753  0.79347083  0.21083256  1
  C  C1409  1  0.16681379  0.78751581  0.24432480  1
  C  C1410  1  0.17119476  0.68697244  0.07405537  1
  C  C1411  1  0.25615645  0.67335465  0.24279853  1
  C  C1412  1  0.16800590  0.81242102  0.14967053  1
  H  H1413  1  0.16852374  0.81918411  0.12557475  1
  C  C1414  1  0.18354758  0.67173717  0.09907315  1
  C  C1415  1  0.23094849  0.67153102  0.07143933  1
  H  H1416  1  0.18027329  0.70891967  0.03085163  1
  H  H1417  1  0.25693150  0.69113972  0.19577493  1
  C  C1418  1  0.21851879  0.68736820  0.04747446  1
  C  C1419  1  0.18911635  0.69505351  0.04833498  1
  C  C1420  1  0.26396113  0.69306375  0.21943866  1
  O  O1421  1  0.26036217  0.69119827  0.01714326  1
  C  C1422  1  0.23505358  0.69709650  0.01860522  1
  C  C1423  1  0.29984576  0.78716976  0.09318768  1
  O  O1424  1  0.30066603  0.76168722  0.09713190  1
  O  O1425  1  0.28941231  0.80308818  0.11451094  1
  O  O1426  1  0.28145740  0.72820599  0.17445215  1
  C  C1427  1  0.29254776  0.73295147  0.20052698  1
  C  C1428  1  0.28155384  0.71544562  0.22742357  1
  Cu  Cu1429  1  0.29332467  0.74432827  0.13502766  1
  H  H1430  1  0.20794706  0.77295909  0.20093960  1
  O  O1431  1  0.24050471  0.78177948  0.15274264  1
  C  C1432  1  0.21732996  0.79231451  0.14122977  1
  C  C1433  1  0.19088912  0.79599402  0.16066891  1
  C  C1434  1  0.19131599  0.78680839  0.19243829  1
  C  C1435  1  0.30687369  0.79888703  0.06207277  1
  Cu  Cu1436  1  0.28129507  0.79557830  0.15718766  1
  C  C1437  1  0.31659957  0.78235518  0.03825502  1
  H  H1438  1  0.32084933  0.76031434  0.04358404  1
  O  O1439  1  0.27453453  0.79337556  0.20086223  1
  C  C1440  1  0.28016755  0.81174384  0.22121691  1
  O  O1441  1  0.21830806  0.80599943  0.11570209  1
  O  O1442  1  0.31571745  0.74669569  0.20531882  1
  H  H1443  1  0.32078042  0.80401615  0.17525580  1
  C  C1444  1  0.30986724  0.82485435  0.22049873  1
  C  C1445  1  0.32293306  0.79316972  0.00807954  1
  C  C1446  1  0.32793700  0.81800653  0.19421644  1
  Cu  Cu1447  1  0.25781441  0.80747771  0.02114894  1
  C  C1448  1  0.30636475  0.82768812  0.05733692  1
  C  C1449  1  0.31728210  0.82166421  0.00391194  1
  O  O1450  1  0.26131803  0.82144223  0.24009832  1
  O  O1451  1  0.22486191  0.81880091  0.04219028  1
  O  O1452  1  0.33203547  0.73361931  0.13647342  1
  C  C1453  1  0.34255218  0.71025252  0.14515643  1
  C  C1454  1  0.35664252  0.67315345  0.06969306  1
  O  O1455  1  0.34499497  0.70344096  0.17379574  1
  H  H1456  1  0.34333976  0.71554611  0.08052071  1
  O  O1457  1  0.33830140  0.69569039  0.02402290  1
  C  C1458  1  0.35333894  0.67652669  0.03525534  1
  O  O1459  1  0.46974204  0.79264048  0.18654620  1
  C  C1460  1  0.46953909  0.76783343  0.20018842  1
  O  O1461  1  0.45543437  0.74911432  0.18857643  1
  Cu  Cu1462  1  0.35431466  0.72861674  0.20406325  1
  H  H1463  1  0.46173485  0.75970460  0.04922664  1
  C  C1464  1  0.35020386  0.68997335  0.12120773  1
  C  C1465  1  0.44854298  0.77909135  0.04540603  1
  C  C1466  1  0.34937185  0.69551656  0.08923481  1
  C  C1467  1  0.42017077  0.77841974  0.03433270  1
  C  C1468  1  0.40500112  0.75137932  0.02457067  1
  C  C1469  1  0.40156369  0.80154041  0.02838722  1
  H  H1470  1  0.37887812  0.79856308  0.02270456  1
  C  C1471  1  0.46050753  0.80593316  0.05188173  1
  Cu  Cu1472  1  0.43580417  0.81218785  0.17917924  1
  O  O1473  1  0.37768058  0.74975291  0.02549428  1
  O  O1474  1  0.36860314  0.80709186  0.14443754  1
  H  H1475  1  0.39550279  0.78653556  0.23689410  1
  O  O1476  1  0.42074418  0.73122889  0.01624891  1
  H  H1477  1  0.47274728  0.71824671  0.23355407  1
  C  C1478  1  0.37537119  0.82137236  0.16573529  1
  C  C1479  1  0.48966102  0.80811373  0.06589457  1
  C  C1480  1  0.35643522  0.82939589  0.19464764  1
  C  C1481  1  0.48762140  0.76109776  0.22832232  1
  C  C1482  1  0.41300793  0.82712800  0.03658282  1
  C  C1483  1  0.44270877  0.82922623  0.04749769  1
  Cu  Cu1484  1  0.35766699  0.72523882  0.00271658  1
  O  O1485  1  0.36884615  0.74760001  0.23758158  1
  C  C1486  1  0.48631283  0.73473569  0.24195844  1
  O  O1487  1  0.40278047  0.83202828  0.16835497  1
  C  C1488  1  0.44590556  0.82303265  0.24710623  1
  O  O1489  1  0.43120476  0.82682446  0.22205781  1
  C  C1490  1  0.00219202  0.90026636  0.04352264  1
  C  C1491  1  0.11854282  0.83658048  0.15605549  1
  O  O1492  1  0.12033573  0.84268265  0.12885383  1
  C  C1493  1  0.00749583  0.93068270  0.03628474  1
  C  C1494  1  0.15847290  0.99811655  0.03246779  1
  C  C1495  1  0.01340859  0.92579133  0.23169408  1
  C  C1496  1  0.02085160  0.98650445  0.02967344  1
  O  O1497  1  0.02350783  0.88512041  0.04541725  1
  C  C1498  1  0.10564249  0.99630057  0.22132028  1
  O  O1499  1  0.09557709  0.84438091  0.17268016  1
  C  C1500  1  0.01456613  0.89635660  0.18289264  1
  C  C1501  1  0.07910793  0.98136002  0.12473577  1
  C  C1502  1  0.04420878  0.96754237  0.02973956  1
  Cu  Cu1503  1  0.06805429  0.87375845  0.16252223  1
  O  O1504  1  0.07747002  0.91262325  0.16136864  1
  H  H1505  1  0.06906815  0.97662673  0.10255050  1
  H  H1506  1  0.13295527  0.90864906  0.06836444  1
  C  C1507  1  0.08315318  0.95965552  0.14644213  1
  C  C1508  1  0.09147585  0.96487128  0.17730571  1
  O  O1509  1  0.07312290  0.92336202  0.11060123  1
  C  C1510  1  0.07867415  0.92932337  0.13724843  1
  O  O1511  1  0.02589759  0.87418202  0.17072280  1
  C  C1512  1  0.12214005  0.86965609  0.02735708  1
  H  H1513  1  0.09274784  0.94664757  0.19270971  1
  O  O1514  1  0.10019554  0.88229642  0.02840106  1
  C  C1515  1  0.02446565  0.90259988  0.21490353  1
  C  C1516  1  0.03682448  0.93967085  0.03457768  1
  H  H1517  1  0.05210289  0.92287174  0.03709917  1
  C  C1518  1  0.15039972  0.87289322  0.04638614  1
  C  C1519  1  0.15206049  0.89533861  0.06645992  1
  H  H1520  1  0.05249788  0.86619164  0.21822018  1
  C  C1521  1  0.04279522  0.88407021  0.23059266  1
  C  C1522  1  0.09622333  0.99262834  0.18727251  1
  C  C1523  1  0.07579127  0.97845669  0.02589499  1
  O  O1524  1  0.10963636  0.97529196  0.23933152  1
  O  O1525  1  0.12463715  0.84859942  0.00631638  1
  O  O1526  1  0.15910698  0.94556757  0.09562655  1
  O  O1527  1  0.09549050  0.96300529  0.02037129  1
  Cu  Cu1528  1  0.16225077  0.98309408  0.09950252  1
  C  C1529  1  0.16081113  0.98685260  0.00072694  1
  C  C1530  1  0.31028634  0.84043573  0.02812908  1
  O  O1531  1  0.17324751  0.98823419  0.05509312  1
  H  H1532  1  0.17141608  0.83659732  0.02457276  1
  Cu  Cu1533  1  0.31651415  0.99442945  0.05065360  1
  O  O1534  1  0.28703409  0.99417078  0.07910582  1
  H  H1535  1  0.30389431  0.83980822  0.07879010  1
  C  C1536  1  0.17362725  0.85478736  0.04166710  1
  H  H1537  1  0.18266327  0.94884653  0.01381274  1
  C  C1538  1  0.17902776  0.90236243  0.08117433  1
  C  C1539  1  0.18012501  0.92866178  0.09850327  1
  Cu  Cu1540  1  0.23680540  0.83887841  0.12311891  1
  Cu  Cu1541  1  0.21455393  0.97326904  0.11663071  1
  O  O1542  1  0.29810036  0.85916543  0.15131450  1
  O  O1543  1  0.24679097  0.96843537  0.08889178  1
  H  H1544  1  0.22273503  0.88637402  0.09255764  1
  O  O1545  1  0.24448641  0.84490671  0.08015818  1
  H  H1546  1  0.25182725  0.92090499  0.11010562  1
  O  O1547  1  0.20327879  0.93597043  0.11329874  1
  C  C1548  1  0.28390787  0.87696758  0.13806996  1
  C  C1549  1  0.27672759  0.92496020  0.11320463  1
  C  C1550  1  0.20263180  0.88301158  0.07939467  1
  C  C1551  1  0.19975335  0.85986908  0.05957348  1
  C  C1552  1  0.22374626  0.84021811  0.05989890  1
  C  C1553  1  0.29510111  0.90466879  0.12436766  1
  C  C1554  1  0.29135355  0.95083011  0.10671835  1
  O  O1555  1  0.25512260  0.87348400  0.13258949  1
  C  C1556  1  0.27427660  0.97178882  0.09065291  1
  C  C1557  1  0.31081923  0.87125363  0.01988391  1
  O  O1558  1  0.30437642  0.88879462  0.03856848  1
  C  C1559  1  0.32191759  0.95392253  0.10891261  1
  H  H1560  1  0.33297708  0.97280095  0.10107214  1
  C  C1561  1  0.32625342  0.90570407  0.12507949  1
  C  C1562  1  0.32079826  0.84283167  0.24432511  1
  H  H1563  1  0.45195400  0.84924879  0.05405936  1
  C  C1564  1  0.34867242  0.85318910  0.24295500  1
  O  O1565  1  0.38763791  0.91195185  0.10720530  1
  C  C1566  1  0.40952015  0.98535528  0.05777338  1
  H  H1567  1  0.33747097  0.88677550  0.13240085  1
  C  C1568  1  0.45140351  0.98731386  0.02006380  1
  O  O1569  1  0.33805373  0.95241519  0.00500457  1
  C  C1570  1  0.33956218  0.93044306  0.11612195  1
  C  C1571  1  0.34938806  0.97422221  0.00103758  1
  C  C1572  1  0.36772350  0.84666545  0.21811921  1
  H  H1573  1  0.39069380  0.85363391  0.21856304  1
  O  O1574  1  0.37021428  0.85374051  0.01938925  1
  C  C1575  1  0.37158139  0.93190683  0.11385705  1
  H  H1576  1  0.46602733  0.97590561  0.00635339  1
  O  O1577  1  0.34506990  0.99492681  0.02040766  1
  C  C1578  1  0.43132811  0.97251991  0.03788960  1
  Cu  Cu1579  1  0.37099748  0.98872186  0.13658919  1
  C  C1580  1  0.39636979  0.85264179  0.02805483  1
  Cu  Cu1581  1  0.40143305  0.89543688  0.06760208  1
  H  H1582  1  0.39307096  0.97343395  0.07139681  1
  O  O1583  1  0.41052835  0.87524536  0.03280708  1
  O  O1584  1  0.38196259  0.95729866  0.11603009  1
  O  O1585  1  0.44953576  0.92985541  0.02028695  1
  C  C1586  1  0.42962737  0.94206313  0.03652079  1
  O  O1587  1  0.40718931  0.92994466  0.04825677  1
  C  C1588  1  0.08893043  0.58359660  0.40686665  1
  H  H1589  1  0.09717866  0.57562937  0.38468307  1
  C  C1590  1  0.10125162  0.60761800  0.41863204  1
  C  C1591  1  0.12674914  0.61941646  0.40183297  1
  C  C1592  1  0.06552494  0.57170417  0.42494062  1
  O  O1593  1  0.13283248  0.61019973  0.37491377  1
  C  C1594  1  0.08981936  0.62097830  0.44614190  1
  C  C1595  1  0.05490387  0.58269774  0.45295359  1
  C  C1596  1  0.06869611  0.60745560  0.46334026  1
  O  O1597  1  0.14005846  0.64080107  0.41212772  1
  H  H1598  1  0.09788342  0.64109464  0.45424838  1
  Cu  Cu1599  1  0.15001280  0.63145498  0.34222075  1
  C  C1600  1  0.05464980  0.54482680  0.41123797  1
  H  H1601  1  0.03743148  0.57312688  0.46516664  1
  O  O1602  1  0.06054528  0.53598465  0.38592429  1
  O  O1603  1  0.03612944  0.53158218  0.43080492  1
  O  O1604  1  0.12978443  0.61360480  0.27695590  1
  O  O1605  1  0.11677808  0.63686157  0.31910506  1
  C  C1606  1  0.11277471  0.62929641  0.28921710  1
  C  C1607  1  0.08410374  0.63860869  0.27503958  1
  O  O1608  1  0.03538484  0.64508345  0.40001098  1
  C  C1609  1  0.14857365  0.60692415  0.48581406  1
  C  C1610  1  0.01354402  0.64370457  0.45228777  1
  C  C1611  1  0.14237243  0.57805123  0.49125280  1
  C  C1612  1  0.03186334  0.65737564  0.42673151  1
  C  C1613  1  0.00607225  0.65809733  0.47975696  1
  C  C1614  1  0.06607090  0.65477582  0.29444142  1
  C  C1615  1  0.16182190  0.53205777  0.48653752  1
  H  H1616  1  0.07232890  0.66164939  0.31711365  1
  Cu  Cu1617  1  0.01615749  0.65583403  0.36309632  1
  H  H1618  1  0.01028295  0.60571989  0.42497542  1
  O  O1619  1  0.13146952  0.62705659  0.49196833  1
  C  C1620  1  0.06010499  0.62075107  0.49470944  1
  C  C1621  1  0.00318025  0.61703355  0.44667805  1
  C  C1622  1  0.16532876  0.56014124  0.48056822  1
  C  C1623  1  0.03943339  0.66479600  0.28250637  1
  C  C1624  1  0.03174584  0.65936453  0.25022799  1
  O  O1625  1  0.25026911  0.50310737  0.38513490  1
  Cu  Cu1626  1  0.17119696  0.63815872  0.43927542  1
  O  O1627  1  0.17690278  0.52950774  0.38003763  1
  O  O1628  1  0.17314189  0.61235133  0.47177898  1
  C  C1629  1  0.18458461  0.51120753  0.47730128  1
  H  H1630  1  0.18205940  0.57733400  0.36082324  1
  H  H1631  1  0.29256252  0.51374679  0.34764504  1
  O  O1632  1  0.18603564  0.62533403  0.35796338  1
  H  H1633  1  0.18421014  0.56762451  0.46806739  1
  C  C1634  1  0.19934162  0.57160057  0.34386368  1
  C  C1635  1  0.20853124  0.62380876  0.33737772  1
  C  C1636  1  0.25017652  0.52748888  0.38834006  1
  C  C1637  1  0.20505663  0.54400130  0.33620761  1
  C  C1638  1  0.21289146  0.59389012  0.32883322  1
  C  C1639  1  0.24048790  0.55953795  0.30005277  1
  C  C1640  1  0.23572765  0.58738062  0.30724987  1
  H  H1641  1  0.25272455  0.58465231  0.39313087  1
  C  C1642  1  0.26983353  0.57582701  0.37759016  1
  O  O1643  1  0.27534653  0.63230231  0.39220874  1
  C  C1644  1  0.28954914  0.62402799  0.37032576  1
  C  C1645  1  0.22476720  0.53654581  0.31310684  1
  O  O1646  1  0.23101956  0.54105520  0.40564793  1
  H  H1647  1  0.25005877  0.60332540  0.29640799  1
  C  C1648  1  0.26547339  0.55116821  0.28079881  1
  C  C1649  1  0.28965946  0.59351079  0.36252290  1
  Cu  Cu1650  1  0.19525509  0.52747108  0.41854041  1
  O  O1651  1  0.27255661  0.52574890  0.27912592  1
  C  C1652  1  0.27165511  0.54719504  0.37222634  1
  O  O1653  1  0.20544304  0.52042261  0.46068846  1
  O  O1654  1  0.21868028  0.64439248  0.32632429  1
  C  C1655  1  0.29322452  0.53600961  0.35256740  1
  O  O1656  1  0.27853025  0.56977631  0.26425609  1
  O  O1657  1  0.30269412  0.64077429  0.35016994  1
  C  C1658  1  0.31161991  0.58367166  0.34296772  1
  O  O1659  1  0.20438496  0.65641631  0.45389866  1
  H  H1660  1  0.25533321  0.66409262  0.29281515  1
  H  H1661  1  0.22550519  0.51448112  0.30593631  1
  C  C1662  1  0.18855811  0.52117148  0.35344977  1
  C  C1663  1  0.31357986  0.55450813  0.33790680  1
  Cu  Cu1664  1  0.30889844  0.50504459  0.27124500  1
  H  H1665  1  0.32758250  0.59623863  0.33023802  1
  O  O1666  1  0.32989356  0.51656585  0.30794829  1
  C  C1667  1  0.33409478  0.54159125  0.31757061  1
  O  O1668  1  0.38662586  0.50643904  0.26249111  1
  O  O1669  1  0.35478743  0.55641840  0.30437225  1
  Cu  Cu1670  1  0.41656252  0.51806749  0.43382888  1
  C  C1671  1  0.44435732  0.59907954  0.38741800  1
  C  C1672  1  0.39528314  0.62006661  0.39199138  1
  H  H1673  1  0.37306618  0.61837062  0.40176105  1
  C  C1674  1  0.41404897  0.59775556  0.39546891  1
  O  O1675  1  0.42083211  0.55489216  0.42343286  1
  C  C1676  1  0.40100385  0.57366288  0.41281181  1
  O  O1677  1  0.37507144  0.57058513  0.41267748  1
  C  C1678  1  0.40367731  0.64353494  0.37386550  1
  C  C1679  1  0.45266062  0.62412400  0.37441905  1
  H  H1680  1  0.45926671  0.58102966  0.39080669  1
  Cu  Cu1681  1  0.38582091  0.54141173  0.28241240  1
  C  C1682  1  0.43396818  0.64678314  0.36697034  1
  O  O1683  1  0.42805658  0.52563664  0.47619257  1
  O  O1684  1  0.44681686  0.58330166  0.28100051  1
  C  C1685  1  0.44293813  0.56309368  0.26546943  1
  H  H1686  1  0.45939407  0.57023364  0.47992876  1
  C  C1687  1  0.48717011  0.51827293  0.34821681  1
  C  C1688  1  0.48456961  0.62805872  0.36502954  1
  C  C1689  1  0.46667359  0.54136389  0.25639993  1
  O  O1690  1  0.41682386  0.55583379  0.25594039  1
  O  O1691  1  0.49496535  0.60880084  0.48472739  1
  O  O1692  1  0.49265790  0.65230719  0.35449171  1
  C  C1693  1  0.41188449  0.53888933  0.49670313  1
  O  O1694  1  0.49181269  0.53628200  0.37071230  1
  C  C1695  1  0.44120350  0.58159536  0.49091397  1
  O  O1696  1  0.35542008  0.66523080  0.37603656  1
  C  C1697  1  0.44429758  0.61023430  0.49684193  1
  C  C1698  1  0.47287605  0.62336854  0.49156880  1
  H  H1699  1  0.45323386  0.50165271  0.40145537  1
  C  C1700  1  0.49623041  0.54705937  0.26304237  1
  C  C1701  1  0.38293756  0.66565502  0.36434381  1
  H  H1702  1  0.44262448  0.66605251  0.35677704  1
  O  O1703  1  0.47589260  0.64923342  0.49998059  1
  O  O1704  1  0.04077889  0.68026396  0.43039426  1
  H  H1705  1  0.01415682  0.67919679  0.48387980  1
  O  O1706  1  0.02699215  0.68215834  0.33290514  1
  C  C1707  1  0.02019730  0.68236849  0.30213138  1
  Cu  Cu1708  1  0.01624090  0.79557836  0.43320580  1
  O  O1709  1  0.01644698  0.77878682  0.47259117  1
  Cu  Cu1710  1  0.14706177  0.81215315  0.30107094  1
  O  O1711  1  0.01179057  0.81079454  0.39341262  1
  O  O1712  1  0.14651546  0.82426009  0.34332035  1
  O  O1713  1  0.00590827  0.73387192  0.47022115  1
  O  O1714  1  0.05276344  0.82560770  0.36980283  1
  C  C1715  1  0.02839170  0.83059292  0.38377104  1
  O  O1716  1  0.14537793  0.79310754  0.26219255  1
  C  C1717  1  0.00023921  0.75602441  0.47976441  1
  C  C1718  1  0.26343368  0.67841124  0.27415627  1
  Cu  Cu1719  1  0.31862493  0.67669549  0.35777871  1
  O  O1720  1  0.28751967  0.68926240  0.33253122  1
  O  O1721  1  0.19575998  0.70129867  0.45554025  1
  C  C1722  1  0.20444513  0.68092062  0.46784571  1
  O  O1723  1  0.28748458  0.72852329  0.41548736  1
  H  H1724  1  0.29614269  0.71637975  0.47161240  1
  C  C1725  1  0.28152558  0.70130946  0.28066041  1
  C  C1726  1  0.29425769  0.70643150  0.31212417  1
  O  O1727  1  0.31337958  0.72560821  0.31667990  1
  C  C1728  1  0.31178856  0.72066128  0.40927939  1
  H  H1729  1  0.30765124  0.73665605  0.26173641  1
  Cu  Cu1730  1  0.31818944  0.74921718  0.35264263  1
  O  O1731  1  0.32133188  0.72142506  0.37984126  1
  C  C1732  1  0.29084658  0.72061890  0.25776006  1
  C  C1733  1  0.32005421  0.71155324  0.46497187  1
  O  O1734  1  0.19183347  0.77912231  0.25503488  1
  Cu  Cu1735  1  0.22786321  0.80108612  0.25008049  1
  O  O1736  1  0.33114600  0.78043650  0.37805905  1
  C  C1737  1  0.33291307  0.71409036  0.43512918  1
  O  O1738  1  0.21234239  0.82613727  0.28250379  1
  C  C1739  1  0.48545060  0.73342122  0.42214152  1
  O  O1740  1  0.34045321  0.80943044  0.34089992  1
  O  O1741  1  0.39051810  0.68523112  0.34948953  1
  O  O1742  1  0.42858498  0.69415313  0.47643683  1
  O  O1743  1  0.42436539  0.70054128  0.42512347  1
  C  C1744  1  0.41251924  0.69881869  0.45007351  1
  H  H1745  1  0.47182061  0.80443203  0.29819889  1
  C  C1746  1  0.34853525  0.79833584  0.36407936  1
  C  C1747  1  0.38017249  0.70441305  0.45627076  1
  H  H1748  1  0.37138203  0.70954061  0.40604073  1
  C  C1749  1  0.36956355  0.70358766  0.48690455  1
  C  C1750  1  0.36230054  0.70964675  0.43010664  1
  H  H1751  1  0.36871288  0.77763926  0.41939985  1
  C  C1752  1  0.37889865  0.80230652  0.37965164  1
  C  C1753  1  0.40070585  0.81771963  0.36401583  1
  C  C1754  1  0.38611090  0.78968987  0.40816029  1
  C  C1755  1  0.46856463  0.76165357  0.33360850  1
  C  C1756  1  0.43626303  0.80978209  0.40826364  1
  C  C1757  1  0.41401176  0.79405133  0.42243831  1
  C  C1758  1  0.42508454  0.74700240  0.29772384  1
  H  H1759  1  0.42198125  0.72710832  0.31097496  1
  C  C1760  1  0.42146096  0.78171161  0.45318552  1
  C  C1761  1  0.44725012  0.76517803  0.30717877  1
  O  O1762  1  0.40479683  0.76421980  0.46267049  1
  O  O1763  1  0.44533199  0.79051634  0.46647655  1
  O  O1764  1  0.46335427  0.74232277  0.35072832  1
  C  C1765  1  0.45424921  0.79020901  0.29134472  1
  H  H1766  1  0.45651174  0.81438947  0.41987037  1
  C  C1767  1  0.40784622  0.75664709  0.27225417  1
  O  O1768  1  0.37765977  0.71577538  0.27315951  1
  C  C1769  1  0.42813380  0.81947578  0.37818889  1
  C  C1770  1  0.38369891  0.73727900  0.26063774  1
  Cu  Cu1771  1  0.47553191  0.76980484  0.48919181  1
  O  O1772  1  0.48986697  0.78056846  0.33880062  1
  H  H1773  1  0.39945456  0.82647657  0.33935698  1
  Cu  Cu1774  1  0.46752393  0.68291926  0.47815098  1
  C  C1775  1  0.43712160  0.79567730  0.26534796  1
  C  C1776  1  0.33873704  0.70681638  0.49012472  1
  C  C1777  1  0.41217318  0.78104824  0.25504585  1
  O  O1778  1  0.33702674  0.82752050  0.48366176  1
  O  O1779  1  0.48469980  0.68737644  0.27947996  1
  O  O1780  1  0.47903807  0.83081481  0.36784961  1
  C  C1781  1  0.45178475  0.83257434  0.35666837  1
  C  C1782  1  0.00915036  0.95441005  0.27768386  1
  C  C1783  1  0.12970914  0.99891796  0.34378996  1
  O  O1784  1  0.07351538  0.84725480  0.26326769  1
  Cu  Cu1785  1  0.06860816  0.84939888  0.33979523  1
  O  O1786  1  0.10408945  0.99623349  0.35556818  1
  C  C1787  1  0.13466635  0.84654840  0.35316624  1
  O  O1788  1  0.14079040  0.98491086  0.32117872  1
  O  O1789  1  0.01742921  0.96014098  0.30619041  1
  O  O1790  1  0.10732910  0.84715956  0.35925977  1
  Cu  Cu1791  1  0.12563485  0.97760478  0.28061818  1
  O  O1792  1  0.02862086  0.95764918  0.37214813  1
  O  O1793  1  0.06857227  0.93241095  0.36508746  1
  C  C1794  1  0.01805087  0.85941871  0.38674120  1
  H  H1795  1  0.05857497  0.88127781  0.37078110  1
  C  C1796  1  0.03496553  0.88335724  0.37753450  1
  C  C1797  1  0.02401463  0.90969107  0.37999037  1
  Cu  Cu1798  1  0.09475974  0.96114973  0.37293958  1
  C  C1799  1  0.04149513  0.93359586  0.37333324  1
  C  C1800  1  0.06963762  0.86824982  0.27732538  1
  O  O1801  1  0.07898140  0.87245458  0.30600896  1
  H  H1802  1  0.11789409  0.89602414  0.37844964  1
  O  O1803  1  0.11694354  0.94023482  0.39897600  1
  H  H1804  1  0.04657679  0.91780483  0.30354484  1
  C  C1805  1  0.03992613  0.91170328  0.27967087  1
  C  C1806  1  0.14184827  0.89294028  0.37695837  1
  O  O1807  1  0.15035726  0.94508990  0.27396861  1
  C  C1808  1  0.15394635  0.86953677  0.36373116  1
  C  C1809  1  0.14689755  0.94022772  0.39860768  1
  C  C1810  1  0.02096222  0.92951239  0.26258510  1
  C  C1811  1  0.05075955  0.89020899  0.26166940  1
  H  H1812  1  0.16186177  0.89175517  0.27720828  1
  C  C1813  1  0.16147232  0.91472176  0.38503720  1
  O  O1814  1  0.15994009  0.96049348  0.40776644  1
  O  O1815  1  0.16668001  0.84396039  0.28177769  1
  C  C1816  1  0.17780796  0.94840883  0.26577060  1
  H  H1817  1  0.30643072  0.84892930  0.26322618  1
  O  O1818  1  0.25756279  0.98545209  0.33947990  1
  H  H1819  1  0.19263051  0.84926606  0.34228477  1
  H  H1820  1  0.19786250  0.98524133  0.41028453  1
  O  O1821  1  0.24251494  0.85821815  0.35116807  1
  O  O1822  1  0.25605491  0.89825617  0.36901945  1
  C  C1823  1  0.23716907  0.88062763  0.36409556  1
  C  C1824  1  0.18476120  0.86675063  0.35700667  1
  C  C1825  1  0.20239162  0.88776321  0.36768929  1
  C  C1826  1  0.19172936  0.91238332  0.38129446  1
  H  H1827  1  0.20674386  0.92836842  0.39158776  1
  C  C1828  1  0.23744642  0.98224369  0.36116890  1
  H  H1829  1  0.25262171  0.86058607  0.27562237  1
  C  C1830  1  0.23742483  0.87816582  0.27361212  1
  C  C1831  1  0.20669422  0.87461532  0.27699535  1
  C  C1832  1  0.18596364  0.89590754  0.27501612  1
  C  C1833  1  0.19487448  0.84608362  0.27982012  1
  O  O1834  1  0.21786944  0.96592138  0.35734731  1
  C  C1835  1  0.24793581  0.90456381  0.26715451  1
  O  O1836  1  0.30215813  0.89983301  0.27131474  1
  Cu  Cu1837  1  0.33029119  0.90766338  0.30170632  1
  C  C1838  1  0.19735692  0.92229291  0.26840555  1
  C  C1839  1  0.27960698  0.91521410  0.26527196  1
  C  C1840  1  0.22742084  0.92640780  0.26280201  1
  O  O1841  1  0.28341469  0.93884900  0.25934027  1
  H  H1842  1  0.23505734  0.94741803  0.25622886  1
  O  O1843  1  0.18764367  0.96971706  0.25708003  1
  C  C1844  1  0.40920164  0.89769086  0.40886278  1
  O  O1845  1  0.39483823  0.93728616  0.31031526  1
  H  H1846  1  0.44185464  0.93053599  0.33362682  1
  O  O1847  1  0.38835365  0.87961500  0.26330320  1
  O  O1848  1  0.35404612  0.92178539  0.33302990  1
  O  O1849  1  0.46728623  0.83596129  0.25391415  1
  O  O1850  1  0.40915072  0.87098417  0.45607825  1
  O  O1851  1  0.34868549  0.87379707  0.29328066  1
  C  C1852  1  0.40230519  0.91869182  0.35859865  1
  O  O1853  1  0.36769558  0.87511507  0.42877529  1
  H  H1854  1  0.45404471  0.89027556  0.42437322  1
  C  C1855  1  0.43300032  0.92078713  0.35517687  1
  O  O1856  1  0.49333031  0.92760273  0.35258215  1
  H  H1857  1  0.36531354  0.90475353  0.38617160  1
  C  C1858  1  0.39342753  0.88107057  0.43368350  1
  C  C1859  1  0.43985569  0.89930161  0.40591044  1
  C  C1860  1  0.45194854  0.91190468  0.37898088  1
  C  C1861  1  0.48507206  0.91647493  0.37623711  1
  C  C1862  1  0.38995824  0.90697693  0.38557135  1
  C  C1863  1  0.36416778  0.86953297  0.26866566  1
  Cu  Cu1864  1  0.39902641  0.86484030  0.49704084  1
  C  C1865  1  0.38255405  0.92773052  0.33269500  1
  O  O1866  1  0.44456033  0.84472142  0.33346325  1
  C  C1867  1  0.09011566  0.61389261  0.63769787  1
  C  C1868  1  0.11056466  0.61726294  0.61216519  1
  C  C1869  1  0.13726546  0.63160506  0.61597823  1
  H  H1870  1  0.15267052  0.63459735  0.59605498  1
  C  C1871  1  0.14236329  0.64196310  0.64582120  1
  C  C1872  1  0.12267021  0.63792120  0.67103130  1
  C  C1873  1  0.09602261  0.62355432  0.66711895  1
  H  H1874  1  0.06833848  0.60163935  0.63317398  1
  C  C1875  1  0.12929783  0.55573343  0.64584163  1
  C  C1876  1  0.10390733  0.60387893  0.58244522  1
  Cu  Cu1877  1  0.10892062  0.63686161  0.52838298  1
  C  C1878  1  0.12997172  0.56256148  0.67824318  1
  O  O1879  1  0.12004985  0.61087144  0.55863864  1
  O  O1880  1  0.07927398  0.59219806  0.57795970  1
  H  H1881  1  0.12963026  0.64639371  0.69448720  1
  O  O1882  1  0.05467369  0.60938857  0.69685439  1
  C  C1883  1  0.07877865  0.62049087  0.69786992  1
  H  H1884  1  0.11161766  0.55895245  0.69455566  1
  Cu  Cu1885  1  0.07176055  0.55442464  0.57939693  1
  O  O1886  1  0.06920241  0.54586443  0.53639120  1
  O  O1887  1  0.09024548  0.63044996  0.72230087  1
  C  C1888  1  0.10256937  0.54183796  0.63311030  1
  O  O1889  1  0.09752797  0.53703188  0.60424558  1
  O  O1890  1  0.08299636  0.53838028  0.65369294  1
  H  H1891  1  0.14764761  0.55979073  0.59867112  1
  C  C1892  1  0.15504304  0.57578724  0.68893241  1
  C  C1893  1  0.15139360  0.56219507  0.62414066  1
  C  C1894  1  0.08732444  0.52719883  0.52434749  1
  O  O1895  1  0.09115935  0.52827862  0.71766989  1
  H  H1896  1  0.09666504  0.58291264  0.50977083  1
  O  O1897  1  0.13413813  0.58545397  0.73686022  1
  O  O1898  1  0.03939377  0.61139297  0.50848476  1
  O  O1899  1  0.07422819  0.64194424  0.50519644  1
  C  C1900  1  0.11409041  0.54016725  0.50868967  1
  O  O1901  1  0.08384943  0.50315221  0.52827550  1
  C  C1902  1  0.15822835  0.58556076  0.72202178  1
  C  C1903  1  0.11569620  0.56914705  0.50396556  1
  Cu  Cu1904  1  0.07673659  0.50753566  0.68287761  1
  C  C1905  1  0.07432357  0.52559017  0.74352159  1
  C  C1906  1  0.13578904  0.52127417  0.50089922  1
  C  C1907  1  0.27812100  0.50136477  0.54208324  1
  C  C1908  1  0.17149506  0.65500880  0.65055512  1
  C  C1909  1  0.17551497  0.57613779  0.63641644  1
  C  C1910  1  0.28310670  0.51135113  0.69902951  1
  O  O1911  1  0.20512963  0.51164316  0.54104629  1
  C  C1912  1  0.17815475  0.58272159  0.66853614  1
  O  O1913  1  0.18251778  0.59303736  0.73301702  1
  O  O1914  1  0.19061243  0.65598244  0.62959405  1
  H  H1915  1  0.19717486  0.59434312  0.67891513  1
  C  C1916  1  0.19981340  0.58448515  0.61517713  1
  O  O1917  1  0.19847209  0.58281281  0.58603915  1
  Cu  Cu1918  1  0.22774822  0.63481015  0.62630713  1
  O  O1919  1  0.22130186  0.59659261  0.62829054  1
  O  O1920  1  0.26689850  0.51748307  0.67797171  1
  O  O1921  1  0.23865531  0.60764544  0.54543649  1
  C  C1922  1  0.24118065  0.62973408  0.56158055  1
  Cu  Cu1923  1  0.23327771  0.57045958  0.56241807  1
  C  C1924  1  0.29301188  0.54872348  0.55824683  1
  O  O1925  1  0.26943545  0.55798651  0.54228276  1
  H  H1926  1  0.27807106  0.64066403  0.72869944  1
  H  H1927  1  0.24992148  0.55819357  0.71192101  1
  O  O1928  1  0.24913640  0.63000208  0.59028116  1
  O  O1929  1  0.30792700  0.56211024  0.57503762  1
  C  C1930  1  0.29626787  0.51741352  0.56058346  1
  C  C1931  1  0.22515980  0.65521814  0.51380615  1
  O  O1932  1  0.22821992  0.53463347  0.57841035  1
  H  H1933  1  0.20524108  0.52717518  0.63059129  1
  H  H1934  1  0.26352458  0.51032436  0.52457614  1
  C  C1935  1  0.23611873  0.65557527  0.54457249  1
  C  C1936  1  0.20851231  0.51716497  0.56904622  1
  C  C1937  1  0.28412833  0.52880087  0.72794296  1
  C  C1938  1  0.26631876  0.55299780  0.73003456  1
  C  C1939  1  0.28625658  0.64935351  0.70673577  1
  C  C1940  1  0.31287640  0.64272530  0.69117862  1
  O  O1941  1  0.24117438  0.60287107  0.73353725  1
  Cu  Cu1942  1  0.20864381  0.62672470  0.73372157  1
  O  O1943  1  0.23169720  0.65910211  0.73208755  1
  C  C1944  1  0.31963160  0.65468812  0.66193320  1
  C  C1945  1  0.31753112  0.50651437  0.58103710  1
  C  C1946  1  0.19060237  0.50907889  0.62200459  1
  O  O1947  1  0.19283571  0.52027864  0.68594818  1
  C  C1948  1  0.26545971  0.66643903  0.69130225  1
  H  H1949  1  0.22041849  0.63537116  0.50323135  1
  H  H1950  1  0.33227682  0.51976297  0.59490778  1
  O  O1951  1  0.32718000  0.60724834  0.72761200  1
  C  C1952  1  0.18759058  0.50309624  0.58974091  1
  O  O1953  1  0.17553401  0.66603633  0.67780292  1
  C  C1954  1  0.40629840  0.50535254  0.71623024  1
  O  O1955  1  0.35276339  0.61373781  0.54418762  1
  C  C1956  1  0.33493463  0.62309276  0.70406650  1
  O  O1957  1  0.36409275  0.52615985  0.69519137  1
  C  C1958  1  0.38184154  0.52712227  0.71662647  1
  C  C1959  1  0.37263735  0.62859370  0.53788035  1
  O  O1960  1  0.35902236  0.61973336  0.69190878  1
  C  C1961  1  0.39831865  0.61407365  0.52040033  1
  H  H1962  1  0.42541373  0.65052844  0.51442669  1
  H  H1963  1  0.34162023  0.65160940  0.64896556  1
  Cu  Cu1964  1  0.35313224  0.57760825  0.73856956  1
  O  O1965  1  0.37636039  0.65421143  0.54844540  1
  H  H1966  1  0.37301464  0.57454822  0.52814010  1
  C  C1967  1  0.46507875  0.65046160  0.74534457  1
  O  O1968  1  0.46756297  0.62869878  0.73200027  1
  C  C1969  1  0.43031557  0.50526891  0.73639652  1
  C  C1970  1  0.42238652  0.62802357  0.51005069  1
  C  C1971  1  0.39352445  0.58488368  0.51775876  1
  O  O1972  1  0.37964773  0.54545939  0.73857041  1
  C  C1973  1  0.41576166  0.56972706  0.50375203  1
  O  O1974  1  0.39180987  0.52752195  0.50998764  1
  O  O1975  1  0.11961212  0.67354333  0.54035792  1
  H  H1976  1  0.07429744  0.67384221  0.56923398  1
  O  O1977  1  0.02136835  0.68582948  0.63897288  1
  O  O1978  1  0.02448975  0.67753846  0.58775131  1
  C  C1979  1  0.03546991  0.68480834  0.61530911  1
  C  C1980  1  0.13366013  0.68245420  0.56496194  1
  O  O1981  1  0.02087580  0.78121955  0.70848160  1
  C  C1982  1  0.08416675  0.68422616  0.59034040  1
  C  C1983  1  0.11475393  0.68985396  0.59373278  1
  C  C1984  1  0.06759524  0.68996544  0.61649827  1
  C  C1985  1  0.12813574  0.70155435  0.61961660  1
  C  C1986  1  0.11008153  0.70289143  0.64650321  1
  C  C1987  1  0.12253800  0.71112486  0.67699043  1
  O  O1988  1  0.10527053  0.71394959  0.70035273  1
  Cu  Cu1989  1  0.09423046  0.75165386  0.71406159  1
  C  C1990  1  0.07955049  0.69694413  0.64565098  1
  H  H1991  1  0.06363874  0.69629388  0.66618370  1
  H  H1992  1  0.08560776  0.77432856  0.64205392  1
  C  C1993  1  0.12663245  0.80281025  0.72618149  1
  C  C1994  1  0.07791177  0.79558615  0.64947457  1
  C  C1995  1  0.04498406  0.77750132  0.69291334  1
  O  O1996  1  0.11809151  0.78616132  0.60451367  1
  C  C1997  1  0.05773648  0.79964492  0.67369853  1
  O  O1998  1  0.05762785  0.75445671  0.69327519  1
  C  C1999  1  0.11223346  0.81032891  0.60842995  1
  C  C2000  1  0.09008762  0.81836890  0.63346354  1
  H  H2001  1  0.14692559  0.79480970  0.66625303  1
  O  O2002  1  0.14958098  0.71742266  0.67738705  1
  O  O2003  1  0.10856179  0.79198413  0.70791410  1
  C  C2004  1  0.15779571  0.80406220  0.71550403  1
  H  H2005  1  0.15226858  0.70666374  0.61933032  1
  O  O2006  1  0.12770884  0.83121824  0.59686845  1
  O  O2007  1  0.15989554  0.68433572  0.56674493  1
  C  C2008  1  0.16400065  0.79990859  0.68418119  1
  C  C2009  1  0.04682474  0.82606351  0.68050370  1
  H  H2010  1  0.03011577  0.82944503  0.69853186  1
  C  C2011  1  0.29922386  0.67336406  0.64884093  1
  C  C2012  1  0.23879516  0.67359009  0.70885944  1
  O  O2013  1  0.22443152  0.69555815  0.70158513  1
  C  C2014  1  0.27245061  0.67964846  0.66294842  1
  Cu  Cu2015  1  0.18278796  0.70084841  0.69022788  1
  H  H2016  1  0.25779036  0.69504983  0.65138362  1
  O  O2017  1  0.18169088  0.80670808  0.62215027  1
  C  C2018  1  0.23959942  0.68065063  0.56115083  1
  H  H2019  1  0.25047376  0.68111988  0.58404174  1
  O  O2020  1  0.28975651  0.69961943  0.60396067  1
  O  O2021  1  0.22606737  0.75338677  0.54369799  1
  C  C2022  1  0.23305208  0.73421788  0.55929378  1
  C  C2023  1  0.22956840  0.70451413  0.54668212  1
  Cu  Cu2024  1  0.28992574  0.72329351  0.57012963  1
  O  O2025  1  0.24164526  0.73810496  0.58843889  1
  Cu  Cu2026  1  0.23734867  0.77103847  0.60936257  1
  C  C2027  1  0.29510937  0.77963727  0.58663981  1
  O  O2028  1  0.29711499  0.76228656  0.56498446  1
  O  O2029  1  0.27967656  0.77831811  0.61103082  1
  C  C2030  1  0.30973988  0.80646996  0.57789413  1
  C  C2031  1  0.20260983  0.80491515  0.64186376  1
  O  O2032  1  0.22892169  0.80429242  0.63304976  1
  C  C2033  1  0.19417120  0.80208830  0.67543266  1
  C  C2034  1  0.21768308  0.80378709  0.69694563  1
  C  C2035  1  0.20804554  0.80677008  0.72805849  1
  H  H2036  1  0.24119412  0.80652370  0.69008611  1
  O  O2037  1  0.30074553  0.70985105  0.52971003  1
  C  C2038  1  0.30941087  0.68492960  0.61893317  1
  C  C2039  1  0.21988619  0.70633763  0.51516951  1
  H  H2040  1  0.30513773  0.82470556  0.62366286  1
  C  C2041  1  0.31423232  0.82621270  0.60057151  1
  H  H2042  1  0.31726810  0.79636536  0.52818178  1
  C  C2043  1  0.31982594  0.81122386  0.54686593  1
  C  C2044  1  0.17882423  0.80910328  0.73843361  1
  O  O2045  1  0.25829456  0.80920681  0.74245320  1
  H  H2046  1  0.21420979  0.72693830  0.50334023  1
  C  C2047  1  0.21735482  0.68094354  0.50073449  1
  C  C2048  1  0.32677085  0.70458580  0.52270360  1
  O  O2049  1  0.48752979  0.66696375  0.74818407  1
  Cu  Cu2050  1  0.35327781  0.67299307  0.57431315  1
  O  O2051  1  0.33545240  0.68314268  0.61010861  1
  O  O2052  1  0.34608705  0.70101348  0.54378195  1
  O  O2053  1  0.47476342  0.79344465  0.52431444  1
  H  H2054  1  0.44213283  0.82844276  0.53718983  1
  H  H2055  1  0.38387042  0.69993222  0.50690099  1
  C  C2056  1  0.40395539  0.82395863  0.72741204  1
  C  C2057  1  0.37359222  0.82603572  0.72782445  1
  C  C2058  1  0.49665164  0.81061806  0.53116363  1
  O  O2059  1  0.44456437  0.79688934  0.74153126  1
  C  C2060  1  0.41810659  0.79866011  0.74164738  1
  H  H2061  1  0.35847938  0.81065559  0.73774113  1
  O  O2062  1  0.48128129  0.70548169  0.51054848  1
  Cu  Cu2063  1  0.16189762  0.83817651  0.62090011  1
  O  O2064  1  0.08836031  0.99719672  0.66176885  1
  C  C2065  1  0.08166822  0.84534277  0.64148020  1
  O  O2066  1  0.01857734  0.96470697  0.64529995  1
  O  O2067  1  0.03170742  0.88199839  0.69188425  1
  O  O2068  1  0.07802056  0.95189480  0.65780930  1
  C  C2069  1  0.04915844  0.87805777  0.66939779  1
  C  C2070  1  0.05876565  0.84851108  0.66360280  1
  C  C2071  1  0.09768176  0.97097086  0.70526866  1
  C  C2072  1  0.09674765  0.94378305  0.71772040  1
  H  H2073  1  0.08530623  0.92713630  0.70563548  1
  C  C2074  1  0.08615372  0.97315208  0.67255337  1
  H  H2075  1  0.09052060  0.86353266  0.62849578  1
  O  O2076  1  0.05971086  0.89736325  0.65400286  1
  Cu  Cu2077  1  0.04152659  0.93373256  0.65095026  1
  O  O2078  1  0.14204622  0.90267878  0.62308497  1
  C  C2079  1  0.10905075  0.99423295  0.72136743  1
  O  O2080  1  0.09590827  0.89256973  0.74548635  1
  Cu  Cu2081  1  0.10765164  0.85524784  0.74973172  1
  C  C2082  1  0.10644394  0.94102674  0.74888652  1
  H  H2083  1  0.15809596  0.94791019  0.60137010  1
  H  H2084  1  0.16983256  0.91233603  0.73621618  1
  C  C2085  1  0.16725245  0.89565859  0.62685773  1
  O  O2086  1  0.16950870  0.95662153  0.71034303  1
  O  O2087  1  0.31367855  0.83765472  0.72640171  1
  C  C2088  1  0.23701210  0.99595224  0.66366120  1
  O  O2089  1  0.17266266  0.99379177  0.58572880  1
  C  C2090  1  0.28814660  0.99112901  0.67597804  1
  O  O2091  1  0.17425293  0.87117544  0.63844609  1
  C  C2092  1  0.18064134  0.96582045  0.73400825  1
  C  C2093  1  0.19884484  0.98666064  0.58105881  1
  C  C2094  1  0.18226204  0.94133466  0.60270188  1
  C  C2095  1  0.18989910  0.91546280  0.61436403  1
  C  C2096  1  0.20542592  0.95826428  0.59221834  1
  H  H2097  1  0.25240196  0.96234377  0.58167954  1
  H  H2098  1  0.20751979  0.96050104  0.66967779  1
  C  C2099  1  0.28283494  0.96317748  0.68248785  1
  C  C2100  1  0.25448556  0.95133675  0.67916333  1
  Cu  Cu2101  1  0.30323795  0.88627507  0.66496968  1
  O  O2102  1  0.22716402  0.90873956  0.68205196  1
  C  C2103  1  0.25033285  0.92071496  0.68458110  1
  C  C2104  1  0.23553937  0.94955012  0.59217091  1
  O  O2105  1  0.28040590  0.89380973  0.62881721  1
  O  O2106  1  0.29429024  0.93053929  0.60404709  1
  C  C2107  1  0.24243899  0.92468652  0.60754751  1
  C  C2108  1  0.27471450  0.91618714  0.61381195  1
  C  C2109  1  0.21978482  0.90712004  0.61731808  1
  H  H2110  1  0.22536477  0.88731415  0.62865282  1
  O  O2111  1  0.27524070  0.90742271  0.69212645  1
  H  H2112  1  0.30083461  0.95147002  0.69174808  1
  C  C2113  1  0.23033850  0.96780610  0.66933580  1
  O  O2114  1  0.18853164  0.99137632  0.73498809  1
  O  O2115  1  0.32238604  0.87785046  0.70238637  1
  C  C2116  1  0.33142484  0.85587126  0.71496653  1
  O  O2117  1  0.33041979  0.86568363  0.64380850  1
  C  C2118  1  0.33132599  0.84965174  0.59232245  1
  Cu  Cu2119  1  0.36963403  0.97402358  0.65553916  1
  H  H2120  1  0.34983003  0.87649274  0.55599148  1
  C  C2121  1  0.48727135  0.83443062  0.55301416  1
  C  C2122  1  0.33469499  0.83649258  0.53852643  1
  C  C2123  1  0.37922351  0.87069679  0.69814626  1
  C  C2124  1  0.41004682  0.86510294  0.69608142  1
  Cu  Cu2125  1  0.39393166  0.89403112  0.62143700  1
  C  C2126  1  0.41530724  0.98137996  0.61215418  1
  O  O2127  1  0.45605802  0.87913528  0.67471247  1
  C  C2128  1  0.36316985  0.85122704  0.71511733  1
  C  C2129  1  0.45703517  0.84153439  0.55079248  1
  C  C2130  1  0.33935506  0.86957178  0.61650972  1
  H  H2131  1  0.45062944  0.95246552  0.65521124  1
  O  O2132  1  0.35481881  0.89094642  0.60852117  1
  C  C2133  1  0.49653505  0.87318150  0.58880032  1
  O  O2134  1  0.35937413  0.86516953  0.50164528  1
  H  H2135  1  0.41717739  0.95918146  0.72059242  1
  C  C2136  1  0.34448930  0.84205016  0.50490752  1
  C  C2137  1  0.44921057  0.86650539  0.56512831  1
  H  H2138  1  0.36874537  0.88937712  0.68706487  1
  O  O2139  1  0.33846608  0.98450555  0.68227717  1
  O  O2140  1  0.41077530  0.89677068  0.57948581  1
  C  C2141  1  0.34049902  0.85567543  0.56142759  1
  C  C2142  1  0.42828156  0.88295256  0.67566233  1
  Cu  Cu2143  1  0.48403155  0.90272499  0.66004122  1
  C  C2144  1  0.42264433  0.84224208  0.71044417  1
  O  O2145  1  0.39659521  0.98344689  0.68597275  1
  O  O2146  1  0.40323518  0.99626408  0.59330289  1
  H  H2147  1  0.44600672  0.83675570  0.70693207  1
  C  C2148  1  0.43578005  0.97481523  0.72690150  1
  C  C2149  1  0.46709921  0.88227841  0.58411601  1
  O  O2150  1  0.41588376  0.90139298  0.65916636  1
  O  O2151  1  0.49253126  0.93743380  0.67934055  1
  O  O2152  1  0.40027707  0.96246581  0.62673103  1
  C  C2153  1  0.49202666  0.97558136  0.64846121  1
  C  C2154  1  0.44820890  0.98709487  0.62114896  1
  C  C2155  1  0.41797985  0.87769302  0.56113355  1
  H  H2156  1  0.45713318  0.90141653  0.59549307  1
  O  O2157  1  0.39975340  0.86565809  0.54373968  1
  C  C2158  1  0.46214758  0.97025260  0.64337946  1
  C  C2159  1  0.45735420  0.96847345  0.74970886  1
  O  O2160  1  0.07881717  0.61825455  0.90970789  1
  H  H2161  1  0.11983672  0.57170957  0.95021006  1
  Cu  Cu2162  1  0.10961002  0.61610628  0.87987956  1
  C  C2163  1  0.06192988  0.63936202  0.90700074  1
  H  H2164  1  0.03653308  0.59310856  0.93069712  1
  C  C2165  1  0.01962774  0.60782531  0.92191805  1
  C  C2166  1  0.02862678  0.63397489  0.91150848  1
  O  O2167  1  0.10055689  0.60763755  0.83860430  1
  C  C2168  1  0.12055430  0.56440814  0.82605113  1
  C  C2169  1  0.12940909  0.55106920  0.94338595  1
  H  H2170  1  0.08593072  0.56499936  0.86348021  1
  C  C2171  1  0.10284438  0.55273788  0.85053804  1
  H  H2172  1  0.12142559  0.64200623  0.97344902  1
  C  C2173  1  0.10195733  0.52848213  0.98558923  1
  C  C2174  1  0.11745362  0.59382852  0.82025299  1
  C  C2175  1  0.14000965  0.54832899  0.80787385  1
  O  O2176  1  0.13619989  0.59705207  0.90599108  1
  C  C2177  1  0.14889086  0.54838101  0.91742053  1
  O  O2178  1  0.13206025  0.60539077  0.79824721  1
  C  C2179  1  0.12377068  0.52644222  0.96020569  1
  O  O2180  1  0.06685241  0.53041146  0.89027537  1
  Cu  Cu2181  1  0.11559697  0.61615134  0.75849205  1
  H  H2182  1  0.04047481  0.51887524  0.79509534  1
  C  C2183  1  0.10819235  0.52508608  0.85662466  1
  O  O2184  1  0.09327904  0.55242303  0.99298948  1
  Cu  Cu2185  1  0.02691449  0.52283816  0.88438858  1
  H  H2186  1  0.15171659  0.55808078  0.78770117  1
  C  C2187  1  0.14488000  0.52066269  0.81656483  1
  C  C2188  1  0.00825484  0.65435103  0.90401347  1
  C  C2189  1  0.15410687  0.57469869  0.89887391  1
  O  O2190  1  0.00046813  0.56225136  0.95431115  1
  C  C2191  1  0.13387339  0.50016713  0.95107470  1
  C  C2192  1  0.08803515  0.51439115  0.88085719  1
  C  C2193  1  0.13116614  0.50960398  0.84283521  1
  C  C2194  1  0.07509968  0.50112387  0.76594490  1
  C  C2195  1  0.05619619  0.50230666  0.79250443  1
  C  C2196  1  0.16468740  0.50232554  0.79855315  1
  Cu  Cu2197  1  0.00603191  0.56377155  0.99835979  1
  C  C2198  1  0.16327833  0.65990796  0.76334328  1
  O  O2199  1  0.01680255  0.50783155  0.92515343  1
  C  C2200  1  0.13827083  0.63462931  0.99069577  1
  O  O2201  1  0.01948889  0.50230760  0.84753094  1
  O  O2202  1  0.13815273  0.65112941  0.75239299  1
  C  C2203  1  0.16247260  0.52343399  0.91003529  1
  O  O2204  1  0.16293494  0.66287327  0.93661458  1
  O  O2205  1  0.07006573  0.66254505  0.90235842  1
  O  O2206  1  0.05851155  0.54424466  0.75104323  1
  C  C2207  1  0.16948236  0.63862465  0.98644691  1
  O  O2208  1  0.17158001  0.57709447  0.87806294  1
  H  H2209  1  0.17666371  0.52283445  0.88965550  1
  C  C2210  1  0.30227433  0.53464873  0.78011189  1
  Cu  Cu2211  1  0.23396279  0.63274279  0.92579259  1
  O  O2212  1  0.24816223  0.59933192  0.92950764  1
  C  C2213  1  0.28938778  0.56076161  0.78196029  1
  O  O2214  1  0.26416305  0.60991156  0.77955342  1
  H  H2215  1  0.29213113  0.57358714  0.80356915  1
  C  C2216  1  0.23635990  0.58081675  0.94918485  1
  O  O2217  1  0.21335177  0.56968480  0.94514191  1
  C  C2218  1  0.17916230  0.65230973  0.95696346  1
  H  H2219  1  0.29545627  0.59409905  0.95799062  1
  Cu  Cu2220  1  0.30386618  0.61986018  0.78827532  1
  C  C2221  1  0.28254869  0.59006241  0.98033878  1
  C  C2222  1  0.25323212  0.58084742  0.97962666  1
  C  C2223  1  0.31691054  0.52056842  0.80670936  1
  O  O2224  1  0.18571188  0.64480780  0.76775606  1
  O  O2225  1  0.20729168  0.65233454  0.95447090  1
  O  O2226  1  0.32857545  0.53631500  0.82706581  1
  O  O2227  1  0.29039884  0.65625292  0.79611190  1
  O  O2228  1  0.17998572  0.51254315  0.77514944  1
  C  C2229  1  0.27095378  0.56852026  0.75703023  1
  C  C2230  1  0.25662971  0.59550688  0.75723471  1
  C  C2231  1  0.30262956  0.51962557  0.75212712  1
  O  O2232  1  0.24395801  0.66321157  0.89928963  1
  H  H2233  1  0.26609947  0.66495657  0.84818166  1
  H  H2234  1  0.21442566  0.55983347  0.99920567  1
  O  O2235  1  0.33760153  0.60611837  0.98418465  1
  H  H2236  1  0.49724081  0.61254968  0.89204231  1
  O  O2237  1  0.34772498  0.58216214  0.89489728  1
  C  C2238  1  0.49192577  0.58300858  0.83756709  1
  O  O2239  1  0.34321800  0.62761716  0.79939297  1
  H  H2240  1  0.35910739  0.62457152  0.91901531  1
  C  C2241  1  0.36689646  0.58700418  0.87623077  1
  Cu  Cu2242  1  0.36511920  0.53033483  0.84995220  1
  O  O2243  1  0.37221314  0.57108630  0.85194474  1
  O  O2244  1  0.39388946  0.52906719  0.91629598  1
  O  O2245  1  0.40382031  0.52448789  0.86719591  1
  C  C2246  1  0.41014223  0.53527597  0.89281050  1
  H  H2247  1  0.42295236  0.57000672  0.93902284  1
  H  H2248  1  0.44745178  0.54941712  0.84179297  1
  C  C2249  1  0.40905658  0.61943271  0.86065983  1
  C  C2250  1  0.37694105  0.62921451  0.90568751  1
  C  C2251  1  0.38564199  0.61313975  0.88026866  1
  C  C2252  1  0.42616953  0.64258042  0.86850942  1
  H  H2253  1  0.41444459  0.60538179  0.84120213  1
  C  C2254  1  0.45309244  0.65137857  0.85030240  1
  C  C2255  1  0.43183098  0.55773329  0.89071671  1
  C  C2256  1  0.44938243  0.56148368  0.86333604  1
  C  C2257  1  0.43835375  0.57134748  0.91897549  1
  O  O2258  1  0.46303756  0.63730933  0.82644499  1
  C  C2259  1  0.46240591  0.59005919  0.91910435  1
  C  C2260  1  0.47151675  0.58100285  0.86485078  1
  C  C2261  1  0.47774986  0.59649266  0.89127815  1
  O  O2262  1  0.45863520  0.59896543  0.97443978  1
  C  C2263  1  0.46789199  0.60652974  0.94763200  1
  C  C2264  1  0.36703883  0.62304947  0.78441734  1
  O  O2265  1  0.37324725  0.60165656  0.76877233  1
  C  C2266  1  0.39061102  0.64416973  0.78599624  1
  C  C2267  1  0.41541163  0.63848240  0.76731857  1
  O  O2268  1  0.49025533  0.56547403  0.81523227  1
  Cu  Cu2269  1  0.35433610  0.64007282  0.98577899  1
  O  O2270  1  0.48402193  0.62779702  0.94534857  1
  C  C2271  1  0.43714080  0.65876221  0.76374922  1
  C  C2272  1  0.39445028  0.65302948  0.91238401  1
  H  H2273  1  0.41748116  0.61921115  0.75339098  1
  H  H2274  1  0.43432307  0.52329194  0.75155961  1
  C  C2275  1  0.41969638  0.65897905  0.89459759  1
  O  O2276  1  0.36396245  0.66568781  0.95353928  1
  H  H2277  1  0.00058271  0.75444106  0.76253775  1
  H  H2278  1  0.01457070  0.67592906  0.89579612  1
  C  C2279  1  0.10369804  0.74124518  0.91205464  1
  C  C2280  1  0.09138777  0.72565627  0.93640157  1
  C  C2281  1  0.09523069  0.76951643  0.86442204  1
  C  C2282  1  0.08353990  0.75265875  0.89167669  1
  C  C2283  1  0.00697412  0.73537053  0.92441496  1
  C  C2284  1  0.06011503  0.72200396  0.93950706  1
  O  O2285  1  0.07559373  0.77906231  0.84444926  1
  C  C2286  1  0.04136656  0.73632168  0.92080729  1
  C  C2287  1  0.05245097  0.75178360  0.89606323  1
  H  H2288  1  0.03810931  0.76151172  0.87835173  1
  Cu  Cu2289  1  0.06103687  0.76436055  0.80635033  1
  O  O2290  1  0.02336024  0.75966916  0.81608828  1
  C  C2291  1  0.01161061  0.73532523  0.82289420  1
  O  O2292  1  0.09988166  0.76631361  0.79103698  1
  C  C2293  1  0.10895211  0.74656853  0.77524028  1
  O  O2294  1  0.01398476  0.72389708  0.84769250  1
  H  H2295  1  0.05167354  0.70840750  0.95918584  1
  C  C2296  1  0.11176422  0.71027447  0.95646087  1
  O  O2297  1  0.12100320  0.76976490  0.85883468  1
  O  O2298  1  0.09982900  0.69415639  0.97654256  1
  H  H2299  1  0.12851460  0.74410350  0.90822521  1
  O  O2300  1  0.13966776  0.71366530  0.95470416  1
  H  H2301  1  0.14992708  0.77632610  0.90773953  1
  C  C2302  1  0.15720372  0.81497544  0.93504644  1
  C  C2303  1  0.13753130  0.73178451  0.77805554  1
  C  C2304  1  0.13959534  0.70503058  0.76428803  1
  O  O2305  1  0.11207441  0.81393605  0.90646615  1
  C  C2306  1  0.16465274  0.78824491  0.92352288  1
  H  H2307  1  0.12000993  0.69701290  0.75138315  1
  H  H2308  1  0.15305687  0.76227656  0.80984145  1
  C  C2309  1  0.15929912  0.74226230  0.79746352  1
  C  C2310  1  0.04119307  0.80876234  0.98613286  1
  O  O2311  1  0.02910768  0.82984892  0.97821268  1
  C  C2312  1  0.16478313  0.68920206  0.77001925  1
  C  C2313  1  0.12538630  0.82500083  0.92685233  1
  O  O2314  1  0.09262770  0.73656714  0.75335261  1
  C  C2315  1  0.02635622  0.78168038  0.99247792  1
  O  O2316  1  0.07021544  0.80887443  0.99211097  1
  O  O2317  1  0.11801782  0.81415239  0.75082221  1
  Cu  Cu2318  1  0.17043819  0.69860764  0.92648922  1
  H  H2319  1  0.17198116  0.81214478  0.76344370  1
  O  O2320  1  0.17809976  0.73378564  0.91279476  1
  C  C2321  1  0.26077581  0.68291329  0.90748257  1
  C  C2322  1  0.28224546  0.68118920  0.85489829  1
  C  C2323  1  0.30570459  0.67911359  0.80185160  1
  O  O2324  1  0.26004238  0.69219175  0.93527397  1
  C  C2325  1  0.28159723  0.69459726  0.88402042  1
  C  C2326  1  0.30201790  0.69256482  0.83350531  1
  H  H2327  1  0.29919371  0.72623962  0.91499336  1
  C  C2328  1  0.29974041  0.71746137  0.89244831  1
  O  O2329  1  0.22092039  0.73786069  0.93827117  1
  O  O2330  1  0.21119831  0.76456321  0.82527976  1
  C  C2331  1  0.21214252  0.73781034  0.81782161  1
  C  C2332  1  0.18467774  0.72504220  0.80133325  1
  Cu  Cu2333  1  0.24292681  0.78918592  0.81428561  1
  C  C2334  1  0.18921802  0.69997073  0.78729803  1
  O  O2335  1  0.27575999  0.80534814  0.82924859  1
  O  O2336  1  0.23320437  0.72322020  0.82142926  1
  H  H2337  1  0.20902995  0.68702952  0.79105609  1
  C  C2338  1  0.20953670  0.79327912  0.95449615  1
  H  H2339  1  0.23010012  0.78299857  0.96112128  1
  C  C2340  1  0.18979292  0.77689949  0.93634365  1
  C  C2341  1  0.19651210  0.74848093  0.92864271  1
  Cu  Cu2342  1  0.22464599  0.70442955  0.95590377  1
  C  C2343  1  0.31742630  0.72966355  0.86837446  1
  O  O2344  1  0.30129562  0.81319958  0.78637252  1
  C  C2345  1  0.29702239  0.81646603  0.81503219  1
  C  C2346  1  0.31903577  0.71693299  0.83854402  1
  Cu  Cu2347  1  0.32282292  0.79965976  0.91706111  1
  O  O2348  1  0.22505911  0.81101327  0.78049049  1
  C  C2349  1  0.20178370  0.82050559  0.96151223  1
  H  H2350  1  0.29680179  0.82416252  0.87572918  1
  O  O2351  1  0.32293958  0.68753036  0.78307762  1
  H  H2352  1  0.31993686  0.82821769  0.97935226  1
  C  C2353  1  0.33282656  0.77764850  0.97976586  1
  O  O2354  1  0.24781146  0.82630559  0.98323689  1
  O  O2355  1  0.22117803  0.71306180  0.99803542  1
  C  C2356  1  0.23125183  0.80975674  0.75179549  1
  C  C2357  1  0.17459060  0.83280844  0.95202926  1
  O  O2358  1  0.33377794  0.75189939  0.98097378  1
  C  C2359  1  0.33581149  0.75282008  0.87691779  1
  H  H2360  1  0.33468755  0.72445301  0.81992496  1
  C  C2361  1  0.38783436  0.66856771  0.80356977  1
  O  O2362  1  0.46543219  0.67289824  0.85681367  1
  H  H2363  1  0.36828511  0.67256921  0.81913232  1
  O  O2364  1  0.33588856  0.76471090  0.90406684  1
  O  O2365  1  0.34205775  0.79130807  0.95594955  1
  C  C2366  1  0.38782192  0.67061976  0.93946364  1
  H  H2367  1  0.43493427  0.67544005  0.89856057  1
  O  O2368  1  0.35383754  0.76153973  0.85583035  1
  C  C2369  1  0.47607154  0.76521550  0.98262890  1
  O  O2370  1  0.40070383  0.69385903  0.94489263  1
  Cu  Cu2371  1  0.39340688  0.75472121  0.85323618  1
  O  O2372  1  0.40213926  0.78856688  0.87154499  1
  C  C2373  1  0.41716006  0.80629793  0.85738406  1
  O  O2374  1  0.42792997  0.80260333  0.82999969  1
  C  C2375  1  0.42760810  0.76809110  0.95979072  1
  O  O2376  1  0.40624835  0.78008689  0.94804559  1
  O  O2377  1  0.38710951  0.72195615  0.82837960  1
  C  C2378  1  0.40852220  0.71647890  0.81062967  1
  C  C2379  1  0.41007754  0.68810813  0.79784873  1
  Cu  Cu2380  1  0.41741378  0.77318445  0.79973212  1
  O  O2381  1  0.42737318  0.73583076  0.80545067  1
  O  O2382  1  0.42969814  0.74228472  0.95846604  1
  C  C2383  1  0.45678368  0.81244811  0.97192801  1
  C  C2384  1  0.45482537  0.78418412  0.97144985  1
  Cu  Cu2385  1  0.36932320  0.77195489  0.92800468  1
  Cu  Cu2386  1  0.41132580  0.71310209  0.98025089  1
  H  H2387  1  0.47411198  0.74198806  0.98044212  1
  O  O2388  1  0.40234172  0.78274061  0.76019971  1
  C  C2389  1  0.43631881  0.68315107  0.78185111  1
  H  H2390  1  0.45351307  0.69840790  0.77958627  1
  H  H2391  1  0.40084766  0.82248611  0.91672930  1
  C  C2392  1  0.48227000  0.82463390  0.98569240  1
  H  H2393  1  0.43639806  0.82326925  0.96370719  1
  C  C2394  1  0.42465060  0.83188441  0.87402090  1
  C  C2395  1  0.49991918  0.77798954  0.99688808  1
  H  H2396  1  0.00655103  0.99306198  0.82388343  1
  O  O2397  1  0.11446071  0.84592373  0.94209300  1
  H  H2398  1  0.12670273  0.95884600  0.79062641  1
  C  C2399  1  0.11644921  0.96256846  0.76656259  1
  O  O2400  1  0.10308073  0.91089336  0.79240663  1
  C  C2401  1  0.10363916  0.91233579  0.76445908  1
  C  C2402  1  0.16125298  0.96624335  0.93892980  1
  H  H2403  1  0.16165135  0.95875915  0.91446998  1
  O  O2404  1  0.14947217  0.86649668  0.75431148  1
  C  C2405  1  0.11735644  0.98921719  0.75215897  1
  C  C2406  1  0.14827153  0.99223729  0.94519409  1
  C  C2407  1  0.16253538  0.87350422  0.78042370  1
  Cu  Cu2408  1  0.09618603  0.83548006  0.98078702  1
  O  O2409  1  0.16625655  0.85743177  0.80095592  1
  H  H2410  1  0.16620050  0.85373662  0.95878552  1
  O  O2411  1  0.06479352  0.99776566  0.84291733  1
  O  O2412  1  0.31318913  0.83632903  0.92912109  1
  C  C2413  1  0.31949575  0.83408152  0.83255220  1
  C  C2414  1  0.31551075  0.83561129  0.86508080  1
  C  C2415  1  0.28077388  0.99450670  0.85109673  1
  C  C2416  1  0.28179382  0.99191940  0.88669523  1
  C  C2417  1  0.17473020  0.95191909  0.96322370  1
  C  C2418  1  0.17391064  0.96157268  0.99481952  1
  C  C2419  1  0.27194850  0.99790744  0.75544380  1
  C  C2420  1  0.17314171  0.90315892  0.78637763  1
  H  H2421  1  0.17719477  0.89978231  0.83689694  1
  H  H2422  1  0.19457079  0.98143305  0.79387159  1
  Cu  Cu2423  1  0.28102267  0.83985801  0.75726302  1
  C  C2424  1  0.17962356  0.91323590  0.81583664  1
  O  O2425  1  0.18635974  0.93790137  0.87305235  1
  C  C2426  1  0.19076395  0.92565944  0.95785736  1
  O  O2427  1  0.19267430  0.91709985  0.92975010  1
  C  C2428  1  0.18887472  0.95539873  0.84997060  1
  C  C2429  1  0.18640159  0.94153576  0.81861499  1
  C  C2430  1  0.18832948  0.95894892  0.79298876  1
  O  O2431  1  0.19934138  0.91247888  0.98173605  1
  Cu  Cu2432  1  0.21879593  0.92724321  0.89742179  1
  C  C2433  1  0.28018135  0.98202634  0.95014530  1
  H  H2434  1  0.28262282  0.97660736  0.97529828  1
  C  C2435  1  0.27241398  0.96621925  0.89645592  1
  Cu  Cu2436  1  0.23749318  0.89438359  0.98041809  1
  H  H2437  1  0.26431012  0.95051527  0.88043946  1
  O  O2438  1  0.25184831  0.91625885  0.91764043  1
  C  C2439  1  0.26179960  0.93342024  0.93874868  1
  C  C2440  1  0.22313614  0.83767511  0.97825409  1
  C  C2441  1  0.27166845  0.96084740  0.92950493  1
  O  O2442  1  0.25902622  0.92684775  0.96683996  1
  C  C2443  1  0.29508725  0.92402740  0.77158373  1
  O  O2444  1  0.29532632  0.87180211  0.77364920  1
  O  O2445  1  0.21696070  0.86212196  0.98897824  1
  C  C2446  1  0.27981259  0.89539700  0.77327245  1
  C  C2447  1  0.27743295  0.94683620  0.76651608  1
  O  O2448  1  0.25340929  0.89548051  0.77655072  1
  C  C2449  1  0.29092898  0.97269552  0.76115791  1
  O  O2450  1  0.27084319  0.97600611  0.83479911  1
  H  H2451  1  0.25326042  0.94292977  0.76389827  1
  C  C2452  1  0.18188852  0.94747987  0.76377182  1
  C  C2453  1  0.32914101  0.85575373  0.91690191  1
  O  O2454  1  0.19431445  0.97971213  0.85317568  1
  C  C2455  1  0.32148763  0.97546838  0.76476644  1
  C  C2456  1  0.17366436  0.92049772  0.75950790  1
  C  C2457  1  0.32561278  0.92438972  0.77423252  1
  O  O2458  1  0.24388623  0.99624754  0.75495163  1
  C  C2459  1  0.33250907  0.85411974  0.88262399  1
  O  O2460  1  0.32111533  0.87669479  0.99142656  1
  O  O2461  1  0.47307359  0.92333768  0.86385839  1
  O  O2462  1  0.36567527  0.92662127  0.89800733  1
  H  H2463  1  0.44500901  0.84721585  0.83299650  1
  H  H2464  1  0.35304606  0.94158938  0.94820819  1
  C  C2465  1  0.35468917  0.87025517  0.86976028  1
  H  H2466  1  0.36937163  0.88309118  0.88524069  1
  C  C2467  1  0.46485058  0.89923948  0.85316825  1
  O  O2468  1  0.41763157  0.89417844  0.96016702  1
  C  C2469  1  0.44762012  0.87872621  0.87069572  1
  C  C2470  1  0.37091315  0.95681722  0.77245961  1
  H  H2471  1  0.33371620  0.99465811  0.76696659  1
  C  C2472  1  0.47549683  0.98962914  0.76084549  1
  O  O2473  1  0.40449425  0.94434087  0.87356019  1
  O  O2474  1  0.38391893  0.88218726  0.79069945  1
  H  H2475  1  0.33811428  0.90424896  0.77840540  1
  H  H2476  1  0.42153059  0.98642260  0.89977648  1
  C  C2477  1  0.49038798  0.85413544  0.98586525  1
  Cu  Cu2478  1  0.39715658  0.93934574  0.83000749  1
  Cu  Cu2479  1  0.44469877  0.89720800  0.99360869  1
  C  C2480  1  0.35787849  0.86838339  0.83698212  1
  C  C2481  1  0.46050541  0.94074131  0.76300678  1
  O  O2482  1  0.46981779  0.89169428  0.82553406  1
  C  C2483  1  0.44065951  0.85297274  0.85755530  1
  H  H2484  1  0.43726083  0.90520294  0.91221989  1
  O  O2485  1  0.39542575  0.85363277  0.96342218  1
  H  H2486  1  0.49256789  0.98325949  0.77867878  1
  Cu  Cu2487  1  0.41183411  0.90391007  0.77158440  1
  O  O2488  1  0.34495228  0.87084697  0.93385998  1
  C  C2489  1  0.42187488  0.86311480  0.91741060  1
  C  C2490  1  0.41422274  0.83731712  0.90458744  1
  C  C2491  1  0.37144987  0.97764448  0.97424181  1
  H  H2492  1  0.34174776  0.85183007  0.79167778  1
  C  C2493  1  0.38507397  0.94304028  0.89682787  1
  C  C2494  1  0.43639736  0.88382643  0.90078211  1
  C  C2495  1  0.36945944  0.95895620  0.94904810  1
  C  C2496  1  0.33743877  0.95072175  0.77069532  1
  C  C2497  1  0.38873219  0.96307337  0.92360509  1
  C  C2498  1  0.33933449  0.85157273  0.81771945  1
  O  O2499  1  0.39881439  0.89996192  0.83471973  1
  O  O2500  1  0.44214241  0.92229927  0.75381871  1
  O  O2501  1  0.38767108  0.93751197  0.78785908  1
  Cu  Cu2502  1  0.35904549  0.86534262  0.97686485  1
  O  O2503  1  0.47824057  0.93826952  0.78568424  1
  C  C2504  1  0.38049310  0.88395643  0.82026540  1
  C  C2505  1  0.40970936  0.98421674  0.92248617  1
  C  C2506  1  0.41183178  0.87044509  0.94919394  1
  O  O2507  1  0.38106954  0.97864087  0.76603119  1
  O  O2508  1  0.47197817  0.87178108  0.97436890  1
  H  H2509  1  0.59765109  0.06660409  0.13523625  1
  C  C2510  1  0.57426888  0.07050827  0.14413893  1
  C  C2511  1  0.55999811  0.05090660  0.16321669  1
  C  C2512  1  0.57810590  0.02699177  0.17343329  1
  O  O2513  1  0.60408427  0.02546592  0.16343956  1
  H  H2514  1  0.62126419  0.02890056  0.22352284  1
  C  C2515  1  0.55864579  0.09369500  0.13354909  1
  C  C2516  1  0.57253230  0.11632657  0.11455166  1
  O  O2517  1  0.59863925  0.11396324  0.10420383  1
  O  O2518  1  0.55550139  0.13574873  0.10714032  1
  C  C2519  1  0.52993526  0.09825475  0.14571385  1
  C  C2520  1  0.53023814  0.05330365  0.17307531  1
  C  C2521  1  0.51699476  0.07817863  0.16488903  1
  H  H2522  1  0.51932461  0.03698006  0.18592172  1
  H  H2523  1  0.51860170  0.11904634  0.14245880  1
  Cu  Cu2524  1  0.62347433  0.14483669  0.10811995  1
  Cu  Cu2525  1  0.54511153  0.01172485  0.22610967  1
  O  O2526  1  0.56618478  0.00834493  0.19061228  1
  C  C2527  1  0.64083214  0.13879119  0.17549949  1
  O  O2528  1  0.63890714  0.13415268  0.14648526  1
  O  O2529  1  0.61824934  0.14550117  0.19200548  1
  H  H2530  1  0.65377368  0.14393507  0.23427756  1
  C  C2531  1  0.65897921  0.01954212  0.05890507  1
  C  C2532  1  0.65811454  0.04084851  0.03705307  1
  O  O2533  1  0.62813276  0.01141895  0.00542096  1
  C  C2534  1  0.63809368  0.03406762  0.00860076  1
  O  O2535  1  0.56481668  0.04511621  0.23840369  1
  C  C2536  1  0.61980961  0.01629290  0.24469519  1
  C  C2537  1  0.52100513  0.11993533  0.24784266  1
  C  C2538  1  0.53967329  0.14156463  0.23853609  1
  O  O2539  1  0.58558971  0.16207743  0.24137325  1
  Cu  Cu2540  1  0.57854419  0.16449451  0.08806530  1
  H  H2541  1  0.64539365  0.00064592  0.05665511  1
  C  C2542  1  0.57232944  0.13917327  0.24387507  1
  C  C2543  1  0.67347209  0.00350120  0.11104895  1
  C  C2544  1  0.67025305  0.13418663  0.18825790  1
  C  C2545  1  0.67370487  0.13658966  0.22071079  1
  C  C2546  1  0.67551160  0.02516296  0.08647807  1
  H  H2547  1  0.67772421  0.07955860  0.02039065  1
  C  C2548  1  0.67639816  0.06394648  0.03884528  1
  C  C2549  1  0.69402776  0.04807806  0.09062085  1
  C  C2550  1  0.69398548  0.06673736  0.06593175  1
  O  O2551  1  0.72680222  0.09845541  0.09006127  1
  H  H2552  1  0.70703994  0.05086425  0.11115691  1
  Cu  Cu2553  1  0.76671068  0.10152640  0.10073157  1
  C  C2554  1  0.76103401  0.04311198  0.17259084  1
  C  C2555  1  0.71278021  0.09216535  0.06543034  1
  C  C2556  1  0.75957537  0.05130593  0.20757463  1
  O  O2557  1  0.76902434  0.13753131  0.07983826  1
  C  C2558  1  0.78552377  0.14428892  0.05829018  1
  O  O2559  1  0.77264672  0.11039675  0.18279962  1
  Cu  Cu2560  1  0.80823837  0.13019710  0.18734786  1
  C  C2561  1  0.75016134  0.11764007  0.16586409  1
  O  O2562  1  0.78367856  0.13503626  0.03062132  1
  Cu  Cu2563  1  0.75044700  0.11316064  0.01781532  1
  C  C2564  1  0.72224639  0.12155611  0.18263154  1
  C  C2565  1  0.69517552  0.12679904  0.16898666  1
  O  O2566  1  0.75308332  0.12366721  0.13757457  1
  O  O2567  1  0.71500653  0.10539514  0.03972468  1
  H  H2568  1  0.80750290  0.04769173  0.21909650  1
  H  H2569  1  0.71064600  0.05418667  0.20366512  1
  C  C2570  1  0.72497794  0.12474555  0.21577542  1
  O  O2571  1  0.81523166  0.13622703  0.14437599  1
  O  O2572  1  0.80894238  0.10154478  0.11017787  1
  H  H2573  1  0.69160785  0.12751018  0.14365674  1
  O  O2574  1  0.73665784  0.03532713  0.15799863  1
  C  C2575  1  0.72994506  0.05583389  0.21873850  1
  C  C2576  1  0.78388881  0.05049102  0.22801218  1
  O  O2577  1  0.78420880  0.04337692  0.15992086  1
  H  H2578  1  0.74608021  0.11993519  0.22812457  1
  C  C2579  1  0.82538260  0.11893639  0.12497232  1
  C  C2580  1  0.70179233  0.13285202  0.23435691  1
  O  O2581  1  0.68711104  0.00584552  0.13663509  1
  O  O2582  1  0.67478204  0.06842181  0.24355822  1
  O  O2583  1  0.82810300  0.13196701  0.22338538  1
  C  C2584  1  0.99239837  0.04657794  0.14605180  1
  C  C2585  1  0.84980546  0.14937582  0.23226967  1
  H  H2586  1  0.85659140  0.08326032  0.08572306  1
  O  O2587  1  0.95625157  0.01743098  0.12356808  1
  H  H2588  1  0.97142988  0.01822444  0.17688927  1
  C  C2589  1  0.85670306  0.12224989  0.11694235  1
  C  C2590  1  0.86854234  0.10197984  0.09664867  1
  O  O2591  1  0.93861594  0.08208986  0.06822545  1
  Cu  Cu2592  1  0.95761281  0.04936016  0.05671559  1
  O  O2593  1  0.89353508  0.06428455  0.05946581  1
  C  C2594  1  0.91035653  0.08096572  0.07083631  1
  C  C2595  1  0.89857203  0.10476246  0.09092847  1
  C  C2596  1  0.91525415  0.12798872  0.09826944  1
  H  H2597  1  0.93954554  0.12880937  0.09438688  1
  C  C2598  1  0.90073165  0.14874976  0.11643721  1
  C  C2599  1  0.87151499  0.14583160  0.12785356  1
  O  O2600  1  0.97903604  0.04875936  0.09259808  1
  C  C2601  1  0.97314419  0.03708202  0.12016840  1
  O  O2602  1  0.97428717  0.02500462  0.02897335  1
  C  C2603  1  0.98953128  0.03463210  0.17570194  1
  O  O2604  1  0.98039626  0.01639352  0.23449314  1
  H  H2605  1  0.85972354  0.16283563  0.13970440  1
  O  O2606  1  0.86555471  0.16095372  0.21419356  1
  C  C2607  1  0.50171178  0.27981494  0.08338398  1
  O  O2608  1  0.64398777  0.17792022  0.10306468  1
  C  C2609  1  0.52942098  0.16728910  0.22649191  1
  Cu  Cu2610  1  0.60989089  0.17947952  0.21185212  1
  O  O2611  1  0.51479123  0.26454331  0.10061877  1
  O  O2612  1  0.51310082  0.29780143  0.06529059  1
  O  O2613  1  0.60858029  0.18476886  0.06795785  1
  C  C2614  1  0.63427481  0.18971509  0.07925606  1
  O  O2615  1  0.58419272  0.19708724  0.16478676  1
  O  O2616  1  0.56744577  0.19436699  0.11752967  1
  H  H2617  1  0.58100365  0.23706746  0.08430056  1
  C  C2618  1  0.59892005  0.24488399  0.10003499  1
  C  C2619  1  0.60345641  0.22997054  0.12755304  1
  H  H2620  1  0.62378204  0.22782397  0.17495033  1
  C  C2621  1  0.64505034  0.22187344  0.03528378  1
  C  C2622  1  0.62295507  0.23803930  0.15188700  1
  C  C2623  1  0.61875659  0.26642159  0.09454732  1
  C  C2624  1  0.64009642  0.27492039  0.11611668  1
  C  C2625  1  0.64222924  0.26045036  0.14425197  1
  C  C2626  1  0.58391995  0.20612889  0.13828378  1
  H  H2627  1  0.62673011  0.21198503  0.02371446  1
  C  C2628  1  0.61727948  0.28528994  0.06703308  1
  O  O2629  1  0.54360028  0.25946388  0.02726329  1
  Cu  Cu2630  1  0.55217076  0.29251909  0.05001568  1
  O  O2631  1  0.59414188  0.28307562  0.04821901  1
  O  O2632  1  0.63606188  0.30166596  0.21333765  1
  O  O2633  1  0.63631048  0.30268987  0.06356764  1
  O  O2634  1  0.60650994  0.21295659  0.23457061  1
  O  O2635  1  0.54537686  0.31993585  0.02292214  1
  H  H2636  1  0.65519944  0.29259313  0.10951501  1
  Cu  Cu2637  1  0.64781814  0.26462782  0.22844253  1
  C  C2638  1  0.65407519  0.21066742  0.06479644  1
  H  H2639  1  0.54393172  0.18482913  0.22017984  1
  O  O2640  1  0.65071103  0.22806282  0.24682145  1
  H  H2641  1  0.59381109  0.28506821  0.24831028  1
  C  C2642  1  0.63606976  0.32248762  0.23143996  1
  C  C2643  1  0.66144737  0.24237288  0.02136445  1
  O  O2644  1  0.66636473  0.25425481  0.19217532  1
  C  C2645  1  0.66663446  0.26673185  0.16614413  1
  C  C2646  1  0.80683629  0.16809203  0.06399714  1
  H  H2647  1  0.81831402  0.17171881  0.01462815  1
  H  H2648  1  0.79627605  0.16721987  0.11122614  1
  C  C2649  1  0.82261061  0.17907143  0.03890279  1
  C  C2650  1  0.81204434  0.17628674  0.09442081  1
  C  C2651  1  0.68229420  0.21637737  0.07687103  1
  C  C2652  1  0.68892116  0.25066409  0.03435174  1
  H  H2653  1  0.69155574  0.20510733  0.09709935  1
  H  H2654  1  0.70318128  0.26860311  0.02496148  1
  O  O2655  1  0.68844713  0.28200356  0.15886288  1
  C  C2656  1  0.69793709  0.23771707  0.06181889  1
  O  O2657  1  0.78368340  0.18533121  0.21114458  1
  O  O2658  1  0.73175208  0.23979080  0.10341440  1
  C  C2659  1  0.72697085  0.24907964  0.07510099  1
  Cu  Cu2660  1  0.71252603  0.26059064  0.13236057  1
  O  O2661  1  0.74746300  0.26595316  0.15978902  1
  O  O2662  1  0.74215756  0.26537782  0.06211063  1
  C  C2663  1  0.75069936  0.25047333  0.18358323  1
  O  O2664  1  0.75455036  0.22497817  0.18244963  1
  Cu  Cu2665  1  0.79029036  0.20814079  0.17439678  1
  C  C2666  1  0.74191602  0.26306765  0.21420384  1
  C  C2667  1  0.73142039  0.29034265  0.21566952  1
  H  H2668  1  0.73019872  0.30505413  0.19483984  1
  C  C2669  1  0.78920624  0.18749735  0.24076264  1
  H  H2670  1  0.75307891  0.22529304  0.24062662  1
  C  C2671  1  0.74350672  0.24569324  0.24050889  1
  O  O2672  1  0.82129697  0.19474237  0.15592614  1
  C  C2673  1  0.72196991  0.30051913  0.24519361  1
  C  C2674  1  0.71362093  0.33111636  0.24612952  1
  C  C2675  1  0.82982105  0.22079625  0.22879382  1
  H  H2676  1  0.83076819  0.21337186  0.20479944  1
  C  C2677  1  0.83354186  0.19698881  0.10110206  1
  C  C2678  1  0.91647540  0.17430691  0.12413095  1
  C  C2679  1  0.83690460  0.20565324  0.13476946  1
  C  C2680  1  0.84302920  0.19996984  0.04557774  1
  O  O2681  1  0.94132153  0.18066157  0.11225096  1
  C  C2682  1  0.99022865  0.29876144  0.15751448  1
  O  O2683  1  0.90625915  0.18726794  0.14735019  1
  C  C2684  1  0.84843266  0.20915194  0.07604049  1
  C  C2685  1  0.86113727  0.21457286  0.02011084  1
  O  O2686  1  0.85765175  0.22183931  0.14245751  1
  H  H2687  1  0.86594196  0.22454386  0.07998740  1
  O  O2688  1  0.87171523  0.25111645  0.19451309  1
  C  C2689  1  0.86970736  0.25655569  0.22302719  1
  C  C2690  1  0.98385344  0.27033287  0.16149597  1
  Cu  Cu2691  1  0.89058553  0.22139043  0.16712351  1
  O  O2692  1  0.92742098  0.22403229  0.19039988  1
  C  C2693  1  0.95165254  0.23137621  0.17752238  1
  O  O2694  1  0.96924177  0.21447523  0.16407236  1
  Cu  Cu2695  1  0.97067148  0.20685802  0.12163248  1
  C  C2696  1  0.95714493  0.26103257  0.17425176  1
  C  C2697  1  0.93560315  0.28022797  0.18047340  1
  H  H2698  1  0.91340314  0.27338049  0.18892823  1
  C  C2699  1  0.94305766  0.30857939  0.17519844  1
  O  O2700  1  0.88773938  0.27406288  0.23648800  1
  Cu  Cu2701  1  0.88522742  0.31501078  0.23709988  1
  O  O2702  1  0.87837319  0.23259133  0.02784940  1
  C  C2703  1  0.97037084  0.31967539  0.16423420  1
  C  C2704  1  0.84776347  0.24147927  0.24171352  1
  O  O2705  1  0.89685911  0.31933439  0.19468160  1
  O  O2706  1  0.99332272  0.22918586  0.09791055  1
  C  C2707  1  0.92120687  0.32936707  0.18399104  1
  H  H2708  1  0.54634323  0.48621917  0.11015555  1
  C  C2709  1  0.54603626  0.49197947  0.04610305  1
  Cu  Cu2710  1  0.60033896  0.47100437  0.06436790  1
  O  O2711  1  0.56173323  0.47314666  0.05907851  1
  O  O2712  1  0.60700412  0.43814281  0.04215216  1
  C  C2713  1  0.60243291  0.43143138  0.01380656  1
  O  O2714  1  0.54259677  0.49165573  0.01709057  1
  H  H2715  1  0.52307992  0.48431710  0.23800434  1
  O  O2716  1  0.65430492  0.34234777  0.22930219  1
  H  H2717  1  0.66606609  0.42968443  0.02845446  1
  C  C2718  1  0.65854178  0.42360685  0.00416668  1
  O  O2719  1  0.57742218  0.43108184  0.00090708  1
  O  O2720  1  0.75720940  0.49974206  0.04692321  1
  Cu  Cu2721  1  0.67956918  0.35732445  0.19931075  1
  O  O2722  1  0.67281325  0.40345637  0.13865879  1
  O  O2723  1  0.71605460  0.34475886  0.21883004  1
  C  C2724  1  0.69284054  0.40263110  0.15739898  1
  H  H2725  1  0.69017593  0.45910237  0.13234918  1
  O  O2726  1  0.70059223  0.37910026  0.17167503  1
  C  C2727  1  0.72279513  0.47671546  0.15953746  1
  C  C2728  1  0.70656029  0.45404701  0.15075868  1
  C  C2729  1  0.74433023  0.47626321  0.18278686  1
  C  C2730  1  0.74743937  0.45027154  0.19689991  1
  C  C2731  1  0.71054776  0.42779029  0.16536417  1
  C  C2732  1  0.73320387  0.42620717  0.18813830  1
  O  O2733  1  0.79976406  0.47759582  0.04315691  1
  H  H2734  1  0.73914813  0.40660176  0.20216366  1
  C  C2735  1  0.76675448  0.44607698  0.22486250  1
  H  H2736  1  0.83267007  0.48401320  0.08240956  1
  H  H2737  1  0.75718210  0.49446698  0.19225774  1
  Cu  Cu2738  1  0.80836596  0.48722863  0.00143745  1
  O  O2739  1  0.71623136  0.42846264  0.02011731  1
  C  C2740  1  0.78202697  0.49666675  0.05598142  1
  C  C2741  1  0.83162575  0.39783120  0.02152529  1
  O  O2742  1  0.77188047  0.42136881  0.23672387  1
  O  O2743  1  0.78185729  0.46475552  0.23475021  1
  C  C2744  1  0.80801260  0.38543273  0.00039451  1
  O  O2745  1  0.92502271  0.35521212  0.17982119  1
  O  O2746  1  0.92940849  0.43889195  0.15859961  1
  C  C2747  1  0.88576669  0.42824161  0.22778325  1
  O  O2748  1  0.90113985  0.39037218  0.10651937  1
  C  C2749  1  0.91214605  0.42605771  0.17602458  1
  H  H2750  1  0.97899999  0.45847860  0.14184694  1
  H  H2751  1  0.97428579  0.48736121  0.04407206  1
  C  C2752  1  0.98324099  0.47384378  0.06212104  1
  C  C2753  1  0.98658779  0.45865826  0.11686424  1
  C  C2754  1  0.86827322  0.39452690  0.06190728  1
  H  H2755  1  0.91828687  0.46558319  0.00429596  1
  C  C2756  1  0.97256077  0.47350851  0.09305109  1
  C  C2757  1  0.94600763  0.49034684  0.10089830  1
  C  C2758  1  0.86010525  0.43768748  0.03478074  1
  O  O2759  1  0.88806731  0.47611855  0.04431754  1
  O  O2760  1  0.93550977  0.48941583  0.12801409  1
  C  C2761  1  0.86623989  0.46630788  0.02833322  1
  O  O2762  1  0.89811388  0.40412422  0.16775190  1
  H  H2763  1  0.89395708  0.43210476  0.07084195  1
  H  H2764  1  0.87370952  0.40862851  0.22422490  1
  H  H2765  1  0.84230286  0.35842672  0.04611645  1
  C  C2766  1  0.83743356  0.42548813  0.01524864  1
  O  O2767  1  0.88348151  0.35235853  0.08694525  1
  C  C2768  1  0.84711649  0.38155681  0.04339716  1
  C  C2769  1  0.90909048  0.47892824  0.24212570  1
  C  C2770  1  0.91992936  0.46384134  0.21618279  1
  C  C2771  1  0.88417756  0.37692739  0.08718087  1
  Cu  Cu2772  1  0.90613183  0.46428945  0.13632023  1
  O  O2773  1  0.87758531  0.48703234  0.11672202  1
  Cu  Cu2774  1  0.91063944  0.37368478  0.14393187  1
  O  O2775  1  0.85230701  0.48105330  0.00791991  1
  C  C2776  1  0.90570696  0.43895883  0.20671704  1
  H  H2777  1  0.93497941  0.47362628  0.19916543  1
  H  H2778  1  0.97316268  0.34169413  0.15978193  1
  C  C2779  1  0.87552777  0.42184770  0.05722558  1
  C  C2780  1  0.58951806  0.05039885  0.41094387  1
  C  C2781  1  0.59300832  0.06802046  0.38507800  1
  C  C2782  1  0.60962936  0.02877692  0.41667949  1
  H  H2783  1  0.57762268  0.08544386  0.38036146  1
  C  C2784  1  0.56594158  0.05259156  0.43608344  1
  O  O2785  1  0.54840409  0.07104623  0.43518588  1
  C  C2786  1  0.57664563  0.13596456  0.43896143  1
  C  C2787  1  0.60382641  0.12943922  0.45251357  1
  H  H2788  1  0.58885251  0.01931849  0.31849814  1
  O  O2789  1  0.57429711  0.05930975  0.28749187  1
  Cu  Cu2790  1  0.57207773  0.10018149  0.29238390  1
  C  C2791  1  0.57856874  0.04504732  0.26331753  1
  C  C2792  1  0.60202734  0.02370865  0.26901808  1
  C  C2793  1  0.55115128  0.12742975  0.45457036  1
  O  O2794  1  0.53523804  0.09595086  0.30806332  1
  C  C2795  1  0.51846491  0.03930235  0.31101672  1
  C  C2796  1  0.52173657  0.05504637  0.33758834  1
  C  C2797  1  0.52899422  0.08559714  0.33644224  1
  O  O2798  1  0.56548560  0.03358161  0.45815982  1
  H  H2799  1  0.51818110  0.05106788  0.28718389  1
  O  O2800  1  0.59758594  0.09742247  0.32880560  1
  C  C2801  1  0.61319443  0.06086624  0.36219957  1
  O  O2802  1  0.58309601  0.11735093  0.25488487  1
  O  O2803  1  0.52419364  0.14406514  0.41100994  1
  C  C2804  1  0.52254754  0.13395379  0.43930038  1
  C  C2805  1  0.61671163  0.07832348  0.33370348  1
  C  C2806  1  0.63170557  0.02374352  0.39500572  1
  C  C2807  1  0.63392934  0.13974660  0.44003627  1
  H  H2808  1  0.57627210  0.14761216  0.41607045  1
  C  C2809  1  0.63425430  0.03995926  0.36749758  1
  O  O2810  1  0.63807614  0.07552905  0.31609282  1
  O  O2811  1  0.53143977  0.09909308  0.35917846  1
  C  C2812  1  0.60339356  0.01085506  0.29821331  1
  C  C2813  1  0.51960593  0.04324129  0.36767065  1
  H  H2814  1  0.52100157  0.05558541  0.38843035  1
  H  H2815  1  0.65205777  0.03668552  0.34961936  1
  C  C2816  1  0.55086549  0.11229760  0.48327147  1
  C  C2817  1  0.60557596  0.11261955  0.47919882  1
  C  C2818  1  0.51649638  0.01433425  0.37071155  1
  C  C2819  1  0.51471523  0.01003005  0.31359112  1
  O  O2820  1  0.51676849  0.00840204  0.25801401  1
  H  H2821  1  0.60655314  0.01536292  0.43736276  1
  H  H2822  1  0.53033189  0.10473536  0.49460332  1
  O  O2823  1  0.51736636  0.01442591  0.42525348  1
  Cu  Cu2824  1  0.53305536  0.00815035  0.46498292  1
  O  O2825  1  0.65636279  0.13804547  0.46024271  1
  C  C2826  1  0.65391555  0.00161224  0.40012362  1
  O  O2827  1  0.63538997  0.15057098  0.41532418  1
  C  C2828  1  0.51178527  0.00071686  0.40086375  1
  C  C2829  1  0.57884435  0.10436600  0.49261216  1
  H  H2830  1  0.62834956  0.10372690  0.48642911  1
  Cu  Cu2831  1  0.66106861  0.10346124  0.30075190  1
  H  H2832  1  0.53226182  0.10075154  0.25681540  1
  O  O2833  1  0.67863840  0.13665313  0.28513261  1
  O  O2834  1  0.69096186  0.07701794  0.28972369  1
  C  C2835  1  0.78650488  0.02563614  0.37220270  1
  H  H2836  1  0.77456773  0.04524100  0.37032817  1
  H  H2837  1  0.74320508  0.06536979  0.29639082  1
  O  O2838  1  0.79593142  0.05513634  0.31011321  1
  C  C2839  1  0.74923895  0.06024423  0.27180348  1
  C  C2840  1  0.80241027  0.05076454  0.28174293  1
  O  O2841  1  0.79632945  0.12034826  0.33129738  1
  C  C2842  1  0.70211435  0.13770525  0.26940102  1
  O  O2843  1  0.72651898  0.14312252  0.28099438  1
  O  O2844  1  0.77714812  0.10479703  0.47490582  1
  O  O2845  1  0.72899165  0.02050812  0.36378612  1
  Cu  Cu2846  1  0.77610176  0.04396423  0.47993122  1
  Cu  Cu2847  1  0.81401700  0.08561861  0.33362996  1
  C  C2848  1  0.80999732  0.14243486  0.34173072  1
  O  O2849  1  0.73984921  0.02363514  0.48404878  1
  C  C2850  1  0.69437435  0.06920501  0.26209449  1
  O  O2851  1  0.79399834  0.01646007  0.45255084  1
  H  H2852  1  0.81267783  0.13186913  0.27970657  1
  O  O2853  1  0.81050471  0.14861850  0.36872815  1
  H  H2854  1  0.77578002  0.15233051  0.49226470  1
  C  C2855  1  0.81703289  0.02403924  0.37859411  1
  C  C2856  1  0.81906702  0.00543973  0.45553593  1
  O  O2857  1  0.82808620  0.04643503  0.27069530  1
  O  O2858  1  0.81693288  0.07329696  0.38113091  1
  C  C2859  1  0.77751535  0.05367916  0.26022202  1
  C  C2860  1  0.72638986  0.06149084  0.25013936  1
  C  C2861  1  0.83180695  0.05080168  0.38439274  1
  C  C2862  1  0.82983028  0.14600832  0.28650370  1
  C  C2863  1  0.83230482  0.15359667  0.31820455  1
  C  C2864  1  0.76678014  0.09674535  0.49885136  1
  C  C2865  1  0.91952546  0.00082570  0.42022326  1
  O  O2866  1  0.89234274  0.00612700  0.41876635  1
  H  H2867  1  0.97863673  0.00858833  0.41698922  1
  C  C2868  1  0.93656091  0.01164030  0.39353316  1
  C  C2869  1  0.96690197  0.01454361  0.39461793  1
  O  O2870  1  0.99196185  0.07456584  0.29057063  1
  C  C2871  1  0.99086737  0.08821585  0.31667346  1
  O  O2872  1  0.84275688  0.01948680  0.46301887  1
  Cu  Cu2873  1  0.86270832  0.03312750  0.29053820  1
  C  C2874  1  0.97074042  0.02670593  0.33966314  1
  Cu  Cu2875  1  0.86921488  0.03773073  0.43271246  1
  H  H2876  1  0.98321932  0.12007752  0.36769711  1
  O  O2877  1  0.85919493  0.05039062  0.39037417  1
  C  C2878  1  0.93973485  0.02359592  0.33832990  1
  O  O2879  1  0.87982702  0.07123013  0.29253661  1
  C  C2880  1  0.87984152  0.08666622  0.31602362  1
  H  H2881  1  0.93535013  0.07691499  0.29125051  1
  C  C2882  1  0.96126333  0.09547630  0.32950176  1
  C  C2883  1  0.93547729  0.08827819  0.31303227  1
  C  C2884  1  0.90915624  0.09511469  0.32855546  1
  O  O2885  1  0.85601714  0.09750748  0.32602060  1
  C  C2886  1  0.90795160  0.10842738  0.35762849  1
  C  C2887  1  0.93495069  0.11735111  0.37083523  1
  H  H2888  1  0.88697963  0.11358774  0.36786472  1
  C  C2889  1  0.96185140  0.11173442  0.35668856  1
  C  C2890  1  0.93345361  0.13280290  0.40125098  1
  Cu  Cu2891  1  0.89867011  0.13197585  0.45151220  1
  O  O2892  1  0.90691045  0.13772171  0.41303723  1
  C  C2893  1  0.92346446  0.02493619  0.30882588  1
  O  O2894  1  0.95528761  0.13936070  0.41605380  1
  C  C2895  1  0.92262468  0.01716336  0.36551353  1
  O  O2896  1  0.93604680  0.02485268  0.28269811  1
  O  O2897  1  0.89573693  0.01913314  0.31178934  1
  H  H2898  1  0.98474366  0.03161906  0.31813349  1
  C  C2899  1  0.98370569  0.02414247  0.36880319  1
  O  O2900  1  0.86770718  0.10862215  0.45415052  1
  O  O2901  1  0.87555717  0.06475565  0.46627386  1
  C  C2902  1  0.86441603  0.08761298  0.47207338  1
  C  C2903  1  0.84960767  0.15772233  0.26556054  1
  H  H2904  1  0.89866325  0.01510637  0.36237488  1
  O  O2905  1  0.90280942  0.15458365  0.48673229  1
  H  H2906  1  0.84840778  0.13563653  0.49431830  1
  Cu  Cu2907  1  0.50398375  0.26190943  0.31784297  1
  Cu  Cu2908  1  0.51526197  0.18132258  0.39852270  1
  O  O2909  1  0.54573230  0.23863441  0.41145071  1
  O  O2910  1  0.53702766  0.28070310  0.31652124  1
  O  O2911  1  0.52169096  0.22750225  0.34006971  1
  H  H2912  1  0.57289940  0.20262790  0.27775210  1
  C  C2913  1  0.58677068  0.21555635  0.29400684  1
  C  C2914  1  0.54162557  0.21229968  0.32585702  1
  C  C2915  1  0.57363353  0.22231521  0.32273993  1
  C  C2916  1  0.61572794  0.22410735  0.28828204  1
  O  O2917  1  0.53459629  0.19039589  0.31623086  1
  C  C2918  1  0.58882891  0.23860358  0.34513759  1
  H  H2919  1  0.57746475  0.24518697  0.36712542  1
  C  C2920  1  0.61816287  0.24486474  0.33852354  1
  C  C2921  1  0.63268753  0.23686734  0.31082042  1
  C  C2922  1  0.55401982  0.28023589  0.29195910  1
  O  O2923  1  0.62926258  0.26313304  0.38972332  1
  C  C2924  1  0.63792942  0.26165492  0.36129874  1
  C  C2925  1  0.56688349  0.22462972  0.45678502  1
  H  H2926  1  0.55261290  0.26813731  0.45841096  1
  C  C2927  1  0.55515531  0.21924865  0.42482398  1
  O  O2928  1  0.55309298  0.19221113  0.41452214  1
  C  C2929  1  0.56307102  0.24987995  0.47191523  1
  C  C2930  1  0.58242649  0.20284849  0.47220302  1
  H  H2931  1  0.58444393  0.18195366  0.46142566  1
  Cu  Cu2932  1  0.65175221  0.26362921  0.42701169  1
  C  C2933  1  0.57707318  0.30377288  0.29039209  1
  H  H2934  1  0.65658060  0.24477851  0.30819635  1
  C  C2935  1  0.64403354  0.32260998  0.43614703  1
  O  O2936  1  0.55257167  0.26450504  0.27065323  1
  C  C2937  1  0.57786664  0.32500266  0.31258832  1
  O  O2938  1  0.65860649  0.27408187  0.35097700  1
  H  H2939  1  0.56248117  0.32758372  0.33253495  1
  O  O2940  1  0.66049014  0.30254792  0.42811998  1
  O  O2941  1  0.62014990  0.32901364  0.42032289  1
  C  C2942  1  0.59553820  0.30241447  0.26405518  1
  C  C2943  1  0.61649296  0.32333305  0.25890407  1
  C  C2944  1  0.62525660  0.22125611  0.25530802  1
  O  O2945  1  0.67454776  0.25820908  0.46284502  1
  C  C2946  1  0.68386766  0.23319195  0.47354479  1
  O  O2947  1  0.69953999  0.21813961  0.45938027  1
  Cu  Cu2948  1  0.73965993  0.17971943  0.28738111  1
  O  O2949  1  0.78116711  0.28883409  0.39176886  1
  O  O2950  1  0.72446436  0.24569741  0.32141437  1
  C  C2951  1  0.73597112  0.23771541  0.29765171  1
  O  O2952  1  0.75109414  0.21436018  0.29507250  1
  H  H2953  1  0.71470044  0.29305759  0.29486788  1
  H  H2954  1  0.79940664  0.20075159  0.29742856  1
  O  O2955  1  0.73776989  0.28915794  0.36837701  1
  C  C2956  1  0.75520353  0.29950453  0.38646922  1
  Cu  Cu2957  1  0.79758493  0.25866208  0.36942050  1
  H  H2958  1  0.78821984  0.27432071  0.45025853  1
  C  C2959  1  0.81321989  0.21322417  0.28318447  1
  O  O2960  1  0.81293769  0.23254467  0.34700849  1
  C  C2961  1  0.81330277  0.29875237  0.48520790  1
  C  C2962  1  0.81025931  0.28124057  0.45859037  1
  C  C2963  1  0.72256190  0.28382464  0.27150114  1
  O  O2964  1  0.81556133  0.24728159  0.40515303  1
  H  H2965  1  0.78686500  0.33220792  0.43001853  1
  C  C2966  1  0.73441372  0.25656306  0.26915545  1
  H  H2967  1  0.69903695  0.32508962  0.46928779  1
  Cu  Cu2968  1  0.82471250  0.19082892  0.49564345  1
  C  C2969  1  0.74613586  0.32795967  0.40037979  1
  H  H2970  1  0.70276893  0.32814213  0.37545816  1
  O  O2971  1  0.77659400  0.17256926  0.26069113  1
  C  C2972  1  0.81128945  0.20799864  0.25166434  1
  C  C2973  1  0.83357100  0.23314434  0.29562452  1
  C  C2974  1  0.83497492  0.23788720  0.32928972  1
  C  C2975  1  0.85327653  0.17275679  0.32900980  1
  C  C2976  1  0.87207210  0.17647574  0.27584875  1
  H  H2977  1  0.85615493  0.17810355  0.35391123  1
  C  C2978  1  0.83893889  0.25844305  0.41551418  1
  C  C2979  1  0.87324568  0.18277915  0.30685482  1
  C  C2980  1  0.83704245  0.27571620  0.44414772  1
  O  O2981  1  0.91537957  0.21124988  0.30263165  1
  C  C2982  1  0.85006815  0.24759148  0.27448956  1
  C  C2983  1  0.86450760  0.28533222  0.45639489  1
  O  O2984  1  0.85897293  0.24743666  0.33985776  1
  O  O2985  1  0.86276285  0.25789236  0.40055033  1
  C  C2986  1  0.89748689  0.20081059  0.31963213  1
  O  O2987  1  0.89737002  0.20577259  0.35029410  1
  Cu  Cu2988  1  0.88109103  0.23108912  0.37379058  1
  H  H2989  1  0.88438443  0.27835788  0.44539836  1
  C  C2990  1  0.86446349  0.30218412  0.48237192  1
  H  H2991  1  0.86680276  0.26282152  0.28297016  1
  O  O2992  1  0.86298159  0.18129994  0.48170407  1
  O  O2993  1  0.91670637  0.30119448  0.47683228  1
  O  O2994  1  0.91009527  0.31143419  0.31496606  1
  C  C2995  1  0.88681976  0.32096315  0.30598796  1
  Cu  Cu2996  1  0.95591751  0.30809888  0.47788774  1
  O  O2997  1  0.87410764  0.31534189  0.27876190  1
  C  C2998  1  0.88775887  0.17546439  0.49489910  1
  C  C2999  1  0.89444728  0.31233745  0.49174305  1
  C  C3000  1  0.83838800  0.31217230  0.49654232  1
  O  O3001  1  0.99274907  0.31737747  0.47788212  1
  H  H3002  1  0.88938145  0.18325985  0.25984306  1
  H  H3003  1  0.89749739  0.33178070  0.37062511  1
  Cu  Cu3004  1  0.60609544  0.49930002  0.33398473  1
  H  H3005  1  0.60132387  0.49028921  0.45491321  1
  O  O3006  1  0.64921319  0.48923642  0.48201812  1
  C  C3007  1  0.59915363  0.34508914  0.30687734  1
  C  C3008  1  0.61757868  0.34500555  0.28078127  1
  C  C3009  1  0.51384801  0.42484410  0.42908148  1
  C  C3010  1  0.51610576  0.42832687  0.39490865  1
  H  H3011  1  0.63446973  0.36170662  0.27748180  1
  Cu  Cu3012  1  0.62452113  0.34936394  0.38549075  1
  O  O3013  1  0.59628981  0.36347446  0.36113539  1
  C  C3014  1  0.60238655  0.36841795  0.33056520  1
  O  O3015  1  0.53637104  0.42986540  0.44700594  1
  O  O3016  1  0.61265763  0.39029304  0.32146695  1
  C  C3017  1  0.54029899  0.44119964  0.38015536  1
  C  C3018  1  0.52032656  0.42809199  0.32924873  1
  H  H3019  1  0.52466111  0.42480735  0.30405628  1
  O  O3020  1  0.58738416  0.46918824  0.34622626  1
  O  O3021  1  0.56750674  0.45547573  0.30209144  1
  C  C3022  1  0.56666501  0.45494647  0.32973828  1
  C  C3023  1  0.54167373  0.44139939  0.34785599  1
  H  H3024  1  0.55858110  0.45069778  0.39366277  1
  H  H3025  1  0.61156906  0.36239019  0.45578491  1
  Cu  Cu3026  1  0.54343641  0.46421501  0.46817633  1
  C  C3027  1  0.63374822  0.36352658  0.46521053  1
  C  C3028  1  0.64232231  0.38706330  0.48241033  1
  C  C3029  1  0.62507379  0.41451177  0.48510333  1
  O  O3030  1  0.60098623  0.41811903  0.47559360  1
  C  C3031  1  0.65411628  0.34197757  0.45948402  1
  O  O3032  1  0.54456770  0.48509382  0.43028730  1
  O  O3033  1  0.66344342  0.35866742  0.38041955  1
  C  C3034  1  0.76611221  0.34082338  0.42061409  1
  C  C3035  1  0.71898344  0.33874651  0.39212895  1
  C  C3036  1  0.68284503  0.34123073  0.47247135  1
  O  O3037  1  0.67633488  0.39880360  0.40231350  1
  C  C3038  1  0.71219811  0.36475524  0.40550462  1
  C  C3039  1  0.68133724  0.37530434  0.39628503  1
  C  C3040  1  0.75742119  0.36640302  0.43243954  1
  O  O3041  1  0.78285319  0.38769491  0.33793352  1
  C  C3042  1  0.72998833  0.37985004  0.42533385  1
  H  H3043  1  0.72307462  0.39919378  0.43672725  1
  C  C3044  1  0.77816548  0.38212412  0.45213530  1
  C  C3045  1  0.80001239  0.37716753  0.32081492  1
  O  O3046  1  0.76893175  0.40480731  0.46379299  1
  O  O3047  1  0.79665296  0.37652786  0.28990308  1
  C  C3048  1  0.69064744  0.36506989  0.48831630  1
  O  O3049  1  0.80188673  0.37087864  0.46119567  1
  C  C3050  1  0.67121930  0.38791585  0.49226829  1
  H  H3051  1  0.81981287  0.38490131  0.38305816  1
  C  C3052  1  0.82864802  0.36736740  0.33518721  1
  O  O3053  1  0.82344647  0.49563583  0.46991402  1
  O  O3054  1  0.70896156  0.34287284  0.26972295  1
  Cu  Cu3055  1  0.79557244  0.40646347  0.26527498  1
  H  H3056  1  0.99541387  0.41356727  0.45733910  1
  O  O3057  1  0.96307366  0.39227452  0.42357073  1
  O  O3058  1  0.91373139  0.39528267  0.46323347  1
  C  C3059  1  0.87975644  0.34465025  0.36033227  1
  O  O3060  1  0.84223883  0.44376780  0.29560722  1
  H  H3061  1  0.85215522  0.45384764  0.47220227  1
  O  O3062  1  0.89049001  0.35478450  0.42444515  1
  C  C3063  1  0.92341416  0.48257933  0.43614010  1
  C  C3064  1  0.83452999  0.37290120  0.36665556  1
  H  H3065  1  0.84104661  0.34878384  0.29076563  1
  C  C3066  1  0.98120729  0.39732323  0.39956592  1
  O  O3067  1  0.97347649  0.39073123  0.37392332  1
  C  C3068  1  0.87667474  0.44359071  0.25454158  1
  C  C3069  1  0.92250416  0.45409915  0.44411339  1
  C  C3070  1  0.84774484  0.35269701  0.31519261  1
  O  O3071  1  0.87079507  0.40628623  0.48199466  1
  C  C3072  1  0.85042998  0.43160824  0.27258715  1
  C  C3073  1  0.87438285  0.48918686  0.45354878  1
  C  C3074  1  0.89484451  0.41379001  0.46859650  1
  C  C3075  1  0.88798795  0.46803985  0.26411452  1
  Cu  Cu3076  1  0.92425645  0.37574462  0.42442122  1
  C  C3077  1  0.89671434  0.44357394  0.45839217  1
  C  C3078  1  0.87152183  0.33894726  0.32965463  1
  H  H3079  1  0.94100810  0.44034141  0.43653083  1
  H  H3080  1  0.88043620  0.47876189  0.28554108  1
  O  O3081  1  0.97204896  0.47305945  0.42329850  1
  C  C3082  1  0.87181773  0.46103589  0.46083462  1
  Cu  Cu3083  1  0.83602262  0.38761555  0.47009428  1
  C  C3084  1  0.85997934  0.36012482  0.37867820  1
  C  C3085  1  0.86738139  0.36456077  0.41184454  1
  O  O3086  1  0.83474546  0.41086832  0.26152691  1
  C  C3087  1  0.95213076  0.49014027  0.42199876  1
  O  O3088  1  0.84951745  0.37970136  0.42750287  1
  C  C3089  1  0.99909110  0.33555114  0.49879286  1
  O  O3090  1  0.58791239  0.06614150  0.61022416  1
  Cu  Cu3091  1  0.56177713  0.06091308  0.57417583  1
  C  C3092  1  0.61320580  0.05644042  0.61379719  1
  C  C3093  1  0.61254589  0.04306826  0.69941692  1
  C  C3094  1  0.60402333  0.05083973  0.66998703  1
  Cu  Cu3095  1  0.63076030  0.05559787  0.54719759  1
  H  H3096  1  0.58262918  0.05929751  0.66479881  1
  O  O3097  1  0.56075611  0.07577750  0.53430774  1
  O  O3098  1  0.56495697  0.05568721  0.71828471  1
  C  C3099  1  0.59017386  0.04600534  0.72502122  1
  C  C3100  1  0.62390615  0.04589141  0.64468338  1
  O  O3101  1  0.63154307  0.05404098  0.59181802  1
  C  C3102  1  0.64004839  0.02936671  0.70405514  1
  C  C3103  1  0.65123536  0.03402996  0.64844158  1
  O  O3104  1  0.60871907  0.08413607  0.53326237  1
  C  C3105  1  0.58254976  0.08778981  0.52152841  1
  H  H3106  1  0.64804504  0.02419684  0.72707111  1
  O  O3107  1  0.53471955  0.04269092  0.59762304  1
  O  O3108  1  0.64819636  0.02962945  0.52463563  1
  C  C3109  1  0.65811488  0.02495346  0.67877748  1
  Cu  Cu3110  1  0.53780808  0.07347503  0.74206260  1
  H  H3111  1  0.59816743  0.01084892  0.51701714  1
  C  C3112  1  0.65322589  0.00866808  0.54296434  1
  O  O3113  1  0.54593838  0.00749537  0.50741672  1
  C  C3114  1  0.50640405  0.03747736  0.59575657  1
  O  O3115  1  0.61989083  0.16454495  0.50102066  1
  Cu  Cu3116  1  0.65625530  0.14453392  0.50420907  1
  O  O3117  1  0.67767519  0.00274411  0.55162071  1
  H  H3118  1  0.66737411  0.03049998  0.62802220  1
  O  O3119  1  0.75639098  0.01687206  0.60719340  1
  H  H3120  1  0.75643206  0.02223261  0.54546846  1
  O  O3121  1  0.72121178  0.09977761  0.61073432  1
  C  C3122  1  0.73127477  0.12207461  0.60354385  1
  C  C3123  1  0.74606996  0.13175844  0.57416842  1
  Cu  Cu3124  1  0.77979993  0.13515531  0.68065698  1
  C  C3125  1  0.75180589  0.11116715  0.55253763  1
  H  H3126  1  0.74618232  0.08968493  0.55685759  1
  O  O3127  1  0.72942589  0.14415289  0.62183200  1
  O  O3128  1  0.78653264  0.09761165  0.69112529  1
  C  C3129  1  0.78111503  0.09041600  0.71841473  1
  C  C3130  1  0.75132989  0.16062741  0.56655001  1
  C  C3131  1  0.82199027  0.05569086  0.71384193  1
  H  H3132  1  0.81217985  0.10627282  0.58357249  1
  O  O3133  1  0.80044657  0.15123039  0.71507250  1
  C  C3134  1  0.79782134  0.06616144  0.73071635  1
  O  O3135  1  0.81414330  0.15634067  0.57802890  1
  O  O3136  1  0.68073130  0.14842885  0.53968473  1
  C  C3137  1  0.76168609  0.11983008  0.52294307  1
  Cu  Cu3138  1  0.72091554  0.01679347  0.73649412  1
  O  O3139  1  0.76576821  0.10405931  0.73708884  1
  O  O3140  1  0.81164260  0.05933808  0.59553179  1
  C  C3141  1  0.82100065  0.05246690  0.57077534  1
  C  C3142  1  0.82203690  0.10284827  0.56040818  1
  C  C3143  1  0.82420928  0.14163475  0.72938228  1
  Cu  Cu3144  1  0.73969821  0.01370532  0.64759763  1
  H  H3145  1  0.82776364  0.06537348  0.69158091  1
  O  O3146  1  0.69136565  0.00050011  0.71083458  1
  C  C3147  1  0.68652410  0.01023495  0.68366899  1
  O  O3148  1  0.82750827  0.02684253  0.56518159  1
  O  O3149  1  0.76058234  0.07055359  0.50432391  1
  C  C3150  1  0.76780103  0.14754633  0.51514617  1
  O  O3151  1  0.67646683  0.16109848  0.58959904  1
  O  O3152  1  0.70079436  0.00511988  0.65928468  1
  C  C3153  1  0.82578007  0.15445855  0.55118190  1
  C  C3154  1  0.82845582  0.07700237  0.54860039  1
  C  C3155  1  0.82875333  0.12589623  0.54069118  1
  C  C3156  1  0.67926027  0.16657429  0.56088713  1
  Cu  Cu3157  1  0.83991838  0.00071689  0.59625867  1
  O  O3158  1  0.87728348  0.00243933  0.72622006  1
  C  C3159  1  0.83778694  0.03489160  0.72855166  1
  H  H3160  1  0.98859774  0.00760214  0.66217351  1
  O  O3161  1  0.96928505  0.05154684  0.67867765  1
  C  C3162  1  0.84043922  0.06950946  0.51958290  1
  C  C3163  1  0.92411222  0.01840483  0.62124443  1
  C  C3164  1  0.94741594  0.02297033  0.64155852  1
  H  H3165  1  0.90506028  0.03265360  0.62028020  1
  C  C3166  1  0.94616640  0.04694923  0.66188268  1
  C  C3167  1  0.90473970  0.13708008  0.70203193  1
  O  O3168  1  0.92396794  0.06263054  0.66652966  1
  C  C3169  1  0.87850724  0.13166359  0.71902628  1
  C  C3170  1  0.93163956  0.12036706  0.70732668  1
  O  O3171  1  0.92746952  0.09777254  0.72157906  1
  O  O3172  1  0.95608019  0.12860215  0.69601366  1
  Cu  Cu3173  1  0.90298249  0.06696813  0.70313365  1
  C  C3174  1  0.85193476  0.14529767  0.71280968  1
  O  O3175  1  0.87870525  0.03757738  0.69382659  1
  C  C3176  1  0.86675135  0.02540204  0.71636784  1
  H  H3177  1  0.87812100  0.11738394  0.73997923  1
  Cu  Cu3178  1  0.98961309  0.12266294  0.71672393  1
  H  H3179  1  0.84373183  0.04713158  0.51276807  1
  C  C3180  1  0.84022604  0.12024875  0.51100339  1
  C  C3181  1  0.90641332  0.15628361  0.67777985  1
  O  O3182  1  0.99904606  0.08459484  0.71968804  1
  C  C3183  1  0.97052174  0.00373948  0.64576668  1
  O  O3184  1  0.87911556  0.00830067  0.58542924  1
  C  C3185  1  0.84936012  0.09294494  0.50228197  1
  Cu  Cu3186  1  0.99619367  0.08160455  0.67750450  1
  H  H3187  1  0.92771250  0.16251394  0.66621812  1
  C  C3188  1  0.85264947  0.16403446  0.68696344  1
  C  C3189  1  0.61406979  0.23516764  0.73119155  1
  C  C3190  1  0.60888242  0.25106766  0.70016813  1
  O  O3191  1  0.58330452  0.25451438  0.69413460  1
  H  H3192  1  0.59146515  0.23496570  0.54371121  1
  C  C3193  1  0.58599752  0.23158364  0.51828866  1
  O  O3194  1  0.60391884  0.17769327  0.54771109  1
  O  O3195  1  0.56366850  0.28033966  0.54784417  1
  C  C3196  1  0.56106599  0.27905102  0.51867012  1
  O  O3197  1  0.61940241  0.24671241  0.59948742  1
  Cu  Cu3198  1  0.58977111  0.30575180  0.56883501  1
  C  C3199  1  0.62858684  0.25532984  0.57358858  1
  C  C3200  1  0.64779952  0.23738438  0.55446328  1
  O  O3201  1  0.62126418  0.27853297  0.56178636  1
  Cu  Cu3202  1  0.62731934  0.25938440  0.64003450  1
  O  O3203  1  0.63018438  0.26065718  0.68291714  1
  O  O3204  1  0.61528483  0.29740219  0.63499476  1
  C  C3205  1  0.60602980  0.18238603  0.52036684  1
  H  H3206  1  0.56204433  0.30950966  0.72326932  1
  C  C3207  1  0.51521265  0.31156414  0.70930554  1
  C  C3208  1  0.62645666  0.31620898  0.61945321  1
  H  H3209  1  0.64876002  0.26387442  0.51529812  1
  C  C3210  1  0.65648260  0.24351455  0.52429237  1
  O  O3211  1  0.61713709  0.32415906  0.59247057  1
  H  H3212  1  0.64742781  0.20329465  0.59094351  1
  C  C3213  1  0.65624850  0.21117160  0.56758863  1
  H  H3214  1  0.56567238  0.23870353  0.73864912  1
  C  C3215  1  0.54440522  0.32047960  0.71020295  1
  C  C3216  1  0.50695065  0.28595116  0.72762167  1
  O  O3217  1  0.54694147  0.29672846  0.50250568  1
  H  H3218  1  0.63941314  0.32692393  0.68183056  1
  C  C3219  1  0.65282844  0.32994695  0.63197467  1
  C  C3220  1  0.64192618  0.22821753  0.74116770  1
  Cu  Cu3221  1  0.51551926  0.31778381  0.52261772  1
  H  H3222  1  0.66158677  0.23139760  0.72532872  1
  O  O3223  1  0.55962530  0.33307090  0.57307210  1
  C  C3224  1  0.58746418  0.23318422  0.74883062  1
  O  O3225  1  0.52870829  0.27288878  0.74318699  1
  C  C3226  1  0.59263013  0.20683743  0.50286381  1
  C  C3227  1  0.57038679  0.25307492  0.50366799  1
  C  C3228  1  0.76229852  0.16811086  0.53851738  1
  Cu  Cu3229  1  0.70205621  0.17284630  0.62513106  1
  C  C3230  1  0.67555707  0.22677160  0.50630993  1
  O  O3231  1  0.76837104  0.17103139  0.66537770  1
  C  C3232  1  0.67456564  0.19445813  0.54954830  1
  H  H3233  1  0.74742688  0.17529164  0.58511000  1
  C  C3234  1  0.68437739  0.20136906  0.51937071  1
  O  O3235  1  0.68498254  0.20635115  0.63161485  1
  O  O3236  1  0.79301435  0.18850872  0.62579291  1
  O  O3237  1  0.68635637  0.21746266  0.68161014  1
  C  C3238  1  0.69098259  0.22352012  0.65506720  1
  C  C3239  1  0.70776145  0.25031760  0.64911578  1
  C  C3240  1  0.71586067  0.26815405  0.67303326  1
  H  H3241  1  0.70880853  0.26191603  0.69672325  1
  C  C3242  1  0.73202146  0.29226520  0.66719113  1
  C  C3243  1  0.74301717  0.31305372  0.69052372  1
  C  C3244  1  0.74179086  0.29689989  0.63604534  1
  C  C3245  1  0.71748305  0.25406022  0.61797374  1
  C  C3246  1  0.73410934  0.27757328  0.61222971  1
  H  H3247  1  0.71416526  0.23861715  0.59902529  1
  C  C3248  1  0.74419279  0.28543312  0.58066536  1
  O  O3249  1  0.73488727  0.30924375  0.71788176  1
  C  C3250  1  0.77756406  0.21434857  0.70242063  1
  C  C3251  1  0.79461256  0.26223769  0.71063398  1
  H  H3252  1  0.77124250  0.19451727  0.71141720  1
  C  C3253  1  0.78539368  0.21699907  0.67122612  1
  O  O3254  1  0.73706400  0.26840365  0.55959057  1
  C  C3255  1  0.78113155  0.19084838  0.65205766  1
  H  H3256  1  0.75262569  0.31751107  0.62928560  1
  Cu  Cu3257  1  0.76218279  0.25487848  0.52704824  1
  O  O3258  1  0.75919522  0.30774928  0.57576134  1
  O  O3259  1  0.76079548  0.21807137  0.54425669  1
  C  C3260  1  0.78459392  0.23662474  0.72245548  1
  C  C3261  1  0.79652099  0.24116643  0.65844504  1
  C  C3262  1  0.80072047  0.26466475  0.67865395  1
  H  H3263  1  0.79910836  0.27919726  0.72673286  1
  O  O3264  1  0.78713329  0.32343412  0.52330653  1
  H  H3265  1  0.80096993  0.24286706  0.63218392  1
  C  C3266  1  0.80863956  0.29067424  0.66392929  1
  O  O3267  1  0.81087520  0.31221720  0.68155349  1
  C  C3268  1  0.76925311  0.19760732  0.52889777  1
  O  O3269  1  0.81765943  0.29117692  0.63566059  1
  O  O3270  1  0.78635561  0.20064085  0.50522492  1
  O  O3271  1  0.76490002  0.28677198  0.50451443  1
  C  C3272  1  0.78591107  0.30342874  0.50432869  1
  H  H3273  1  0.83235559  0.17523270  0.67735537  1
  Cu  Cu3274  1  0.83175337  0.17908297  0.60945146  1
  H  H3275  1  0.67229196  0.33165738  0.58494204  1
  H  H3276  1  0.69925185  0.18699379  0.50672643  1
  H  H3277  1  0.94227604  0.16871518  0.52520128  1
  O  O3278  1  0.83529093  0.17483526  0.53537779  1
  H  H3279  1  0.83681328  0.32447796  0.51655052  1
  Cu  Cu3280  1  0.99648823  0.24785995  0.72947851  1
  H  H3281  1  0.96523455  0.18294426  0.70174887  1
  C  C3282  1  0.87918242  0.16834074  0.67212467  1
  O  O3283  1  0.85310819  0.19875478  0.63689275  1
  O  O3284  1  0.98809948  0.18210645  0.54917977  1
  C  C3285  1  0.98430630  0.18371323  0.71776695  1
  O  O3286  1  0.97783149  0.23839153  0.69337986  1
  C  C3287  1  0.99459461  0.29059862  0.59030265  1
  O  O3288  1  0.93658074  0.26122594  0.68683060  1
  C  C3289  1  0.96806324  0.30104691  0.60405603  1
  C  C3290  1  0.95801357  0.28961895  0.63234124  1
  O  O3291  1  0.90239092  0.19735541  0.63522803  1
  C  C3292  1  0.87959694  0.19066134  0.64686018  1
  O  O3293  1  0.97922382  0.20516727  0.59310815  1
  O  O3294  1  0.85940841  0.26597782  0.55166896  1
  C  C3295  1  0.97114299  0.19610029  0.56774552  1
  Cu  Cu3296  1  0.85286032  0.28007810  0.61571720  1
  H  H3297  1  0.86538094  0.22331201  0.51932145  1
  C  C3298  1  0.87981541  0.25674199  0.56645139  1
  O  O3299  1  0.88521787  0.26623782  0.59539273  1
  C  C3300  1  0.89680949  0.23079884  0.55568390  1
  C  C3301  1  0.88526368  0.21616535  0.53091620  1
  C  C3302  1  0.92835053  0.18558974  0.53346024  1
  H  H3303  1  0.93135233  0.23441182  0.59147627  1
  C  C3304  1  0.92268527  0.22291146  0.57180081  1
  C  C3305  1  0.94036804  0.20246406  0.55756516  1
  O  O3306  1  0.87877331  0.28709878  0.65042320  1
  C  C3307  1  0.88250342  0.30755162  0.66793559  1
  H  H3308  1  0.87103874  0.25994805  0.69753605  1
  C  C3309  1  0.87780587  0.30476726  0.70177474  1
  C  C3310  1  0.87254248  0.27890573  0.71436320  1
  C  C3311  1  0.95140896  0.32471033  0.59214420  1
  H  H3312  1  0.93625338  0.29772321  0.64149673  1
  C  C3313  1  0.97431484  0.26932382  0.64902195  1
  C  C3314  1  0.96124848  0.25638129  0.67836507  1
  C  C3315  1  0.90107508  0.19200400  0.52001050  1
  O  O3316  1  0.90011791  0.32674005  0.51459684  1
  O  O3317  1  0.85955872  0.22749509  0.73822445  1
  C  C3318  1  0.86513152  0.27408511  0.74637580  1
  C  C3319  1  0.87788053  0.32813914  0.72160694  1
  O  O3320  1  0.88864605  0.33150963  0.65589412  1
  C  C3321  1  0.98049601  0.18996415  0.74992294  1
  Cu  Cu3322  1  0.89306986  0.20975477  0.73754921  1
  O  O3323  1  0.92815951  0.19248164  0.73993509  1
  C  C3324  1  0.65574643  0.33423061  0.66400120  1
  O  O3325  1  0.58221474  0.47247085  0.52471195  1
  C  C3326  1  0.56476705  0.45240963  0.52594294  1
  H  H3327  1  0.59738844  0.45572876  0.57856487  1
  H  H3328  1  0.53621161  0.37791733  0.66374509  1
  C  C3329  1  0.52884689  0.35879144  0.67598951  1
  O  O3330  1  0.62239374  0.44431828  0.62380290  1
  C  C3331  1  0.55121728  0.34419625  0.69215131  1
  C  C3332  1  0.58910293  0.43399287  0.57398566  1
  C  C3333  1  0.61846382  0.42004852  0.61952465  1
  C  C3334  1  0.58105233  0.35591882  0.69361672  1
  C  C3335  1  0.55362247  0.35297382  0.55663173  1
  H  H3336  1  0.59304200  0.36877066  0.60333471  1
  C  C3337  1  0.58681347  0.38502565  0.58740414  1
  C  C3338  1  0.56750311  0.38131551  0.56210167  1
  C  C3339  1  0.59755360  0.41173752  0.59277832  1
  C  C3340  1  0.57036587  0.42963509  0.54826910  1
  C  C3341  1  0.55867409  0.40311372  0.54289302  1
  O  O3342  1  0.62899270  0.40155184  0.63925147  1
  O  O3343  1  0.58698548  0.37698194  0.67693273  1
  Cu  Cu3344  1  0.61964524  0.40085211  0.68122477  1
  O  O3345  1  0.60290011  0.34710264  0.70965139  1
  O  O3346  1  0.53662862  0.35026975  0.53310222  1
  H  H3347  1  0.54279177  0.39638360  0.52422466  1
  O  O3348  1  0.64180516  0.46921098  0.54936313  1
  O  O3349  1  0.65540325  0.40088525  0.73975692  1
  Cu  Cu3350  1  0.63084698  0.37182722  0.72768554  1
  O  O3351  1  0.54414840  0.44865354  0.50545960  1
  O  O3352  1  0.64870115  0.42227607  0.69495723  1
  Cu  Cu3353  1  0.62387684  0.46749062  0.51000223  1
  O  O3354  1  0.66210141  0.34683110  0.72397420  1
  C  C3355  1  0.50010870  0.34873299  0.67452147  1
  C  C3356  1  0.66345687  0.41889734  0.71911012  1
  Cu  Cu3357  1  0.53389496  0.47333400  0.74633264  1
  O  O3358  1  0.63994820  0.43331143  0.50226636  1
  O  O3359  1  0.79310186  0.49813908  0.62569652  1
  Cu  Cu3360  1  0.75147842  0.33604067  0.54541458  1
  O  O3361  1  0.75575069  0.33515087  0.68230583  1
  Cu  Cu3362  1  0.72766427  0.33584254  0.74743103  1
  C  C3363  1  0.67504207  0.33681362  0.61043743  1
  C  C3364  1  0.73233123  0.49741388  0.69557297  1
  O  O3365  1  0.72587608  0.49611270  0.66509660  1
  C  C3366  1  0.66882644  0.47676812  0.55669079  1
  Cu  Cu3367  1  0.79657347  0.34647020  0.67386452  1
  C  C3368  1  0.68174177  0.34724258  0.67427809  1
  O  O3369  1  0.68901666  0.46051636  0.55683288  1
  O  O3370  1  0.71976726  0.34960989  0.56782303  1
  C  C3371  1  0.68446785  0.35304160  0.70775896  1
  O  O3372  1  0.70877106  0.36186212  0.72016087  1
  C  C3373  1  0.70044495  0.34940831  0.62241365  1
  C  C3374  1  0.72307321  0.35709369  0.59696177  1
  H  H3375  1  0.72414720  0.36720626  0.66179195  1
  C  C3376  1  0.81317336  0.48053885  0.63575622  1
  C  C3377  1  0.71907450  0.47666888  0.71822475  1
  C  C3378  1  0.81860892  0.44601097  0.55847186  1
  C  C3379  1  0.68570530  0.43923361  0.72938658  1
  C  C3380  1  0.70414279  0.35632727  0.65308574  1
  O  O3381  1  0.79066172  0.38095164  0.66143397  1
  H  H3382  1  0.79353524  0.47919569  0.57887189  1
  C  C3383  1  0.80324844  0.44915709  0.52786689  1
  H  H3384  1  0.69182767  0.45643344  0.68270484  1
  C  C3385  1  0.69778406  0.45783851  0.70778596  1
  O  O3386  1  0.74386951  0.36954551  0.60619155  1
  C  C3387  1  0.80723096  0.41322205  0.69923014  1
  C  C3388  1  0.78311217  0.40251099  0.67846190  1
  C  C3389  1  0.81086640  0.46434218  0.58336404  1
  O  O3390  1  0.75876959  0.41115976  0.68042197  1
  C  C3391  1  0.79939934  0.43149589  0.72400573  1
  C  C3392  1  0.82182372  0.45853605  0.61269874  1
  O  O3393  1  0.78812007  0.47117116  0.52437986  1
  H  H3394  1  0.77583414  0.44018693  0.72643222  1
  O  O3395  1  0.82134512  0.47995238  0.66230967  1
  O  O3396  1  0.80220410  0.43060078  0.50731033  1
  C  C3397  1  0.82391346  0.44188220  0.74093101  1
  O  O3398  1  0.72801520  0.39207542  0.51333546  1
  Cu  Cu3399  1  0.76585838  0.41028498  0.50695296  1
  O  O3400  1  0.73774247  0.34816038  0.50427018  1
  C  C3401  1  0.72891345  0.47601695  0.74894868  1
  C  C3402  1  0.72009873  0.36886718  0.50240416  1
  H  H3403  1  0.67779776  0.40803874  0.50313485  1
  H  H3404  1  0.84011162  0.38879053  0.67347269  1
  O  O3405  1  0.96721524  0.36143260  0.65602723  1
  C  C3406  1  0.86586296  0.39260188  0.60161451  1
  O  O3407  1  0.95956921  0.33396795  0.56594615  1
  Cu  Cu3408  1  0.91278127  0.39646184  0.64532791  1
  O  O3409  1  0.93011817  0.33490535  0.60795615  1
  Cu  Cu3410  1  0.94020090  0.33771528  0.52830415  1
  O  O3411  1  0.89664645  0.38843157  0.68680681  1
  C  C3412  1  0.85297463  0.43274683  0.73610316  1
  C  C3413  1  0.83852692  0.42401973  0.56481815  1
  C  C3414  1  0.84007535  0.43559432  0.61993118  1
  H  H3415  1  0.88349070  0.34860421  0.71260877  1
  C  C3416  1  0.83597566  0.40343525  0.69333635  1
  O  O3417  1  0.87753293  0.39085144  0.62944144  1
  O  O3418  1  0.87057663  0.37557959  0.58246226  1
  C  C3419  1  0.88973176  0.40438763  0.70941284  1
  Cu  Cu3420  1  0.92795780  0.34583215  0.65259109  1
  O  O3421  1  0.95131579  0.40476328  0.65312335  1
  C  C3422  1  0.97262110  0.38710715  0.65434952  1
  O  O3423  1  0.90832020  0.41151340  0.72927629  1
  H  H3424  1  0.84526902  0.40946773  0.54426965  1
  C  C3425  1  0.85849407  0.41331708  0.71260484  1
  H  H3426  1  0.84629942  0.43128199  0.64529599  1
  C  C3427  1  0.84799971  0.41924355  0.59532870  1
  H  H3428  1  0.98339820  0.44126121  0.65514644  1
  O  O3429  1  0.97782665  0.34918275  0.51055776  1
  C  C3430  1  0.59738898  0.14133393  0.85707646  1
  C  C3431  1  0.62530145  0.14715634  0.87593617  1
  C  C3432  1  0.59873138  0.12567967  0.83020483  1
  H  H3433  1  0.62041338  0.12032196  0.82039554  1
  C  C3434  1  0.54482406  0.14261877  0.85162895  1
  C  C3435  1  0.54413726  0.12746342  0.82382068  1
  C  C3436  1  0.57214158  0.12056863  0.81297901  1
  O  O3437  1  0.64820377  0.12953725  0.87432012  1
  O  O3438  1  0.62398767  0.02454320  0.80655573  1
  O  O3439  1  0.54667851  0.05753141  0.89514933  1
  C  C3440  1  0.57420932  0.10507368  0.78407623  1
  O  O3441  1  0.59879646  0.09347388  0.77656461  1
  Cu  Cu3442  1  0.60892790  0.05642804  0.78800401  1
  C  C3443  1  0.53511890  0.03576449  0.90039691  1
  H  H3444  1  0.59352150  0.03779517  0.91297862  1
  O  O3445  1  0.60322761  0.02067756  0.85317606  1
  C  C3446  1  0.56948713  0.15239955  0.86646970  1
  H  H3447  1  0.52513202  0.12219563  0.81125424  1
  C  C3448  1  0.60794470  0.01051369  0.82755545  1
  O  O3449  1  0.64128890  0.02501128  0.92574613  1
  O  O3450  1  0.54963652  0.09899366  0.77142372  1
  C  C3451  1  0.58278473  0.01773298  0.91432676  1
  C  C3452  1  0.55289186  0.01104201  0.91070811  1
  O  O3453  1  0.50703981  0.03277289  0.78596981  1
  O  O3454  1  0.64111843  0.05231221  0.98599330  1
  C  C3455  1  0.63083772  0.00127340  0.92879627  1
  C  C3456  1  0.51545694  0.15269874  0.86661854  1
  O  O3457  1  0.50535320  0.03455644  0.90359208  1
  O  O3458  1  0.62620049  0.16544881  0.89459061  1
  Cu  Cu3459  1  0.66602197  0.05093605  0.95126007  1
  O  O3460  1  0.66506236  0.13633707  0.98574488  1
  O  O3461  1  0.59409262  0.03749551  0.75297651  1
  Cu  Cu3462  1  0.66748940  0.11409411  0.91173636  1
  O  O3463  1  0.67615190  0.10363890  0.95063987  1
  C  C3464  1  0.68235241  0.12577323  0.96785420  1
  C  C3465  1  0.68999694  0.01898355  0.87387424  1
  O  O3466  1  0.78943477  0.01519380  0.88538830  1
  O  O3467  1  0.69409646  0.08076861  0.77935121  1
  C  C3468  1  0.69377650  0.05604051  0.78110058  1
  O  O3469  1  0.69442257  0.09127951  0.89255592  1
  C  C3470  1  0.69556844  0.06553533  0.89540313  1
  O  O3471  1  0.69790804  0.05316033  0.92218627  1
  H  H3472  1  0.69393411  0.08128586  0.83311443  1
  C  C3473  1  0.71228344  0.14110251  0.96183146  1
  H  H3474  1  0.73049483  0.10164182  0.94584072  1
  C  C3475  1  0.78705410  0.11998476  0.92596173  1
  O  O3476  1  0.78196621  0.09580326  0.91320643  1
  Cu  Cu3477  1  0.80666904  0.07990790  0.88309882  1
  C  C3478  1  0.75963217  0.13645929  0.93808604  1
  C  C3479  1  0.73376808  0.12388145  0.94830088  1
  O  O3480  1  0.81202185  0.12807800  0.92727711  1
  C  C3481  1  0.81607069  0.02123014  0.88607158  1
  O  O3482  1  0.78471983  0.11454323  0.81437379  1
  C  C3483  1  0.81183380  0.14688733  0.84738462  1
  C  C3484  1  0.80574712  0.11961557  0.83518709  1
  Cu  Cu3485  1  0.78569153  0.11945171  0.77076599  1
  C  C3486  1  0.69302782  0.05949932  0.83907897  1
  O  O3487  1  0.82050694  0.10095228  0.84651069  1
  C  C3488  1  0.69375057  0.04751491  0.86885689  1
  C  C3489  1  0.80481856  0.03392645  0.77233049  1
  O  O3490  1  0.77492380  0.02540250  0.81887434  1
  C  C3491  1  0.69197386  0.04226744  0.81235232  1
  C  C3492  1  0.79644837  0.01546573  0.98308059  1
  C  C3493  1  0.80004406  0.04465409  0.98592853  1
  C  C3494  1  0.82721592  0.05817490  0.98246438  1
  H  H3495  1  0.77476002  0.00612180  0.98347873  1
  C  C3496  1  0.68680758  0.01381322  0.81652968  1
  H  H3497  1  0.82992132  0.08060474  0.98285861  1
  O  O3498  1  0.82547331  0.04589375  0.88940672  1
  C  C3499  1  0.79831504  0.01832943  0.80248145  1
  C  C3500  1  0.76583651  0.16409438  0.94344934  1
  C  C3501  1  0.77412041  0.06318426  0.99294710  1
  O  O3502  1  0.77720478  0.08978631  0.99454523  1
  O  O3503  1  0.75081884  0.05125677  0.99714913  1
  H  H3504  1  0.68848149  0.01065172  0.89918221  1
  H  H3505  1  0.77230373  0.16369327  0.82224399  1
  O  O3506  1  0.69215046  0.03925751  0.75628010  1
  H  H3507  1  0.77130563  0.06492222  0.77451869  1
  C  C3508  1  0.82859516  0.02144753  0.75663689  1
  O  O3509  1  0.82172116  0.13027178  0.75555142  1
  C  C3510  1  0.78911294  0.05591871  0.76006574  1
  H  H3511  1  0.68396756  0.00061963  0.79638180  1
  C  C3512  1  0.68480539  0.00336086  0.84724180  1
  O  O3513  1  0.81520292  0.00049618  0.81075684  1
  C  C3514  1  0.83479502  0.15009964  0.86800137  1
  H  H3515  1  0.85128151  0.13383224  0.87435129  1
  H  H3516  1  0.99570562  0.13445877  0.91841944  1
  C  C3517  1  0.85006523  0.01175561  0.97591107  1
  C  C3518  1  0.95513136  0.00819060  0.79400182  1
  C  C3519  1  0.85216671  0.04052253  0.97807761  1
  O  O3520  1  0.93485312  0.01634840  0.77388526  1
  C  C3521  1  0.98600024  0.01862344  0.78689088  1
  C  C3522  1  0.97724413  0.08072827  0.92587845  1
  H  H3523  1  0.87091223  0.02919028  0.90555724  1
  O  O3524  1  0.97114521  0.05512050  0.92851775  1
  Cu  Cu3525  1  0.93799828  0.04369003  0.94953917  1
  O  O3526  1  0.92025823  0.02230840  0.91781887  1
  O  O3527  1  0.95849140  0.09864225  0.93204268  1
  C  C3528  1  0.86636146  0.00754690  0.89976713  1
  Cu  Cu3529  1  0.92288429  0.09427501  0.95525438  1
  O  O3530  1  0.90383349  0.03671670  0.97811522  1
  O  O3531  1  0.88749973  0.07862737  0.97303396  1
  C  C3532  1  0.88181880  0.05277487  0.97659842  1
  C  C3533  1  0.98977856  0.03828130  0.76303540  1
  H  H3534  1  0.84144725  0.00408911  0.76695189  1
  H  H3535  1  0.96978091  0.04595055  0.75146983  1
  H  H3536  1  0.56834035  0.16748841  0.88648913  1
  O  O3537  1  0.51563112  0.16940797  0.88677450  1
  O  O3538  1  0.50004169  0.26793378  0.88155737  1
  H  H3539  1  0.53219503  0.26196266  0.93797281  1
  O  O3540  1  0.55945626  0.31365872  0.77838056  1
  O  O3541  1  0.60363137  0.30963478  0.79650876  1
  H  H3542  1  0.62179816  0.21428540  0.81788479  1
  O  O3543  1  0.56416125  0.21562757  0.82754969  1
  C  C3544  1  0.61867549  0.21950119  0.79189527  1
  C  C3545  1  0.56327563  0.22327949  0.80179315  1
  Cu  Cu3546  1  0.54654254  0.27483298  0.78391195  1
  O  O3547  1  0.54018640  0.23673627  0.78908519  1
  C  C3548  1  0.59029821  0.22477136  0.77994254  1
  C  C3549  1  0.64360874  0.22127294  0.77289303  1
  O  O3550  1  0.57766486  0.31327058  0.98466077  1
  O  O3551  1  0.56663211  0.25811324  0.98133614  1
  C  C3552  1  0.51380041  0.26134069  0.98351213  1
  C  C3553  1  0.51147539  0.26326773  0.95030522  1
  C  C3554  1  0.58355202  0.32432177  0.78924760  1
  O  O3555  1  0.62360085  0.24959838  0.98262181  1
  Cu  Cu3556  1  0.59990810  0.28064834  0.98368961  1
  C  C3557  1  0.64995019  0.25356602  0.99208521  1
  C  C3558  1  0.55185487  0.31798544  0.99468791  1
  H  H3559  1  0.56758205  0.32572959  0.93344797  1
  C  C3560  1  0.53180924  0.32775992  0.96915944  1
  C  C3561  1  0.54341378  0.32945846  0.93839317  1
  C  C3562  1  0.54321236  0.25906859  0.99782766  1
  O  O3563  1  0.56280055  0.33173857  0.88006152  1
  C  C3564  1  0.71508315  0.16928030  0.96789712  1
  C  C3565  1  0.79104940  0.16724657  0.83921941  1
  H  H3566  1  0.78778136  0.17251347  0.93690487  1
  O  O3567  1  0.66869838  0.26806556  0.97677882  1
  C  C3568  1  0.67366864  0.21600476  0.78778201  1
  H  H3569  1  0.69698436  0.18208709  0.97738074  1
  O  O3570  1  0.67397181  0.21070856  0.81565408  1
  C  C3571  1  0.74320074  0.17921045  0.95907271  1
  Cu  Cu3572  1  0.70574256  0.25399489  0.96699832  1
  O  O3573  1  0.72994432  0.22461553  0.98070739  1
  O  O3574  1  0.73021742  0.27951518  0.94785372  1
  Cu  Cu3575  1  0.76658666  0.22816426  0.90429812  1
  H  H3576  1  0.73602596  0.27301139  0.85527156  1
  O  O3577  1  0.73287018  0.25030149  0.90827920  1
  C  C3578  1  0.73140804  0.27492435  0.91838463  1
  C  C3579  1  0.73266859  0.29875179  0.89778295  1
  C  C3580  1  0.73407645  0.29481671  0.86534647  1
  O  O3581  1  0.78635483  0.25454831  0.77241940  1
  C  C3582  1  0.74635681  0.20935050  0.96374181  1
  O  O3583  1  0.76833937  0.23671648  0.86155437  1
  O  O3584  1  0.76845690  0.22019970  0.94965682  1
  O  O3585  1  0.74717423  0.20762172  0.82825988  1
  C  C3586  1  0.76875686  0.21391984  0.84623203  1
  Cu  Cu3587  1  0.73332324  0.22247812  0.78832637  1
  C  C3588  1  0.79163512  0.19388720  0.85267826  1
  H  H3589  1  0.81780823  0.21623033  0.88709040  1
  C  C3590  1  0.81493675  0.19629391  0.87447662  1
  C  C3591  1  0.73277732  0.31861537  0.84596925  1
  C  C3592  1  0.73492618  0.31491222  0.81099406  1
  O  O3593  1  0.73664188  0.29147814  0.80196353  1
  O  O3594  1  0.69692193  0.21751416  0.77132866  1
  Cu  Cu3595  1  0.81463746  0.25635860  0.80560648  1
  O  O3596  1  0.76574507  0.21271847  0.76718807  1
  C  C3597  1  0.73230747  0.32687002  0.90925934  1
  O  O3598  1  0.81205394  0.30490169  0.85039133  1
  H  H3599  1  0.73287191  0.33088850  0.93518658  1
  C  C3600  1  0.77930165  0.23308533  0.75688713  1
  C  C3601  1  0.82925913  0.28794940  0.85817165  1
  H  H3602  1  0.99834939  0.19214416  0.79762064  1
  O  O3603  1  0.87734177  0.16764295  0.91581482  1
  C  C3604  1  0.83657919  0.17670588  0.88214676  1
  O  O3605  1  0.83430175  0.26466623  0.84242935  1
  C  C3606  1  0.84577521  0.32045957  0.89806410  1
  C  C3607  1  0.85066739  0.29393746  0.88493520  1
  O  O3608  1  0.85396742  0.20590654  0.92494838  1
  C  C3609  1  0.85845924  0.18348281  0.90960832  1
  C  C3610  1  0.98897523  0.27736041  0.78580400  1
  H  H3611  1  0.87591072  0.25411933  0.88307604  1
  C  C3612  1  0.87161305  0.27504533  0.89533916  1
  O  O3613  1  0.90697078  0.23541454  0.92982229  1
  C  C3614  1  0.91351579  0.26240267  0.93242417  1
  Cu  Cu3615  1  0.88036423  0.21918241  0.95778158  1
  O  O3616  1  0.93331745  0.26972208  0.94863389  1
  C  C3617  1  0.89185775  0.28299692  0.91853901  1
  O  O3618  1  0.94324898  0.19449481  0.78856872  1
  O  O3619  1  0.97234741  0.26580925  0.80270618  1
  H  H3620  1  0.85746509  0.29666708  0.78985518  1
  C  C3621  1  0.86342872  0.29732890  0.76507350  1
  O  O3622  1  0.85124605  0.24425956  0.78708652  1
  C  C3623  1  0.88795810  0.30835559  0.93281900  1
  H  H3624  1  0.90224134  0.31434619  0.95381666  1
  C  C3625  1  0.94956814  0.19324450  0.76126993  1
  O  O3626  1  0.95817455  0.31306402  0.88959103  1
  C  C3627  1  0.86523112  0.32607451  0.92246080  1
  O  O3628  1  0.85873415  0.20644227  0.99088188  1
  C  C3629  1  0.85540722  0.24687429  0.75812309  1
  O  O3630  1  0.98626848  0.27617516  0.75516232  1
  O  O3631  1  0.99527631  0.32755787  0.91831836  1
  C  C3632  1  0.86914452  0.32395311  0.75217172  1
  C  C3633  1  0.97971168  0.32719690  0.89193875  1
  C  C3634  1  0.50206467  0.33419068  0.97437997  1
  C  C3635  1  0.52193397  0.49952198  0.85004041  1
  C  C3636  1  0.52309015  0.33406150  0.91494472  1
  C  C3637  1  0.53460762  0.33406845  0.88216147  1
  C  C3638  1  0.59545093  0.49562577  0.96132410  1
  O  O3639  1  0.51756517  0.33738666  0.85975689  1
  Cu  Cu3640  1  0.51222889  0.37057468  0.83127754  1
  H  H3641  1  0.51569481  0.44372204  0.85515999  1
  H  H3642  1  0.63067077  0.35023676  0.81331176  1
  C  C3643  1  0.54669522  0.48009636  0.85704938  1
  C  C3644  1  0.62894458  0.47781977  0.87314052  1
  O  O3645  1  0.61001353  0.39169710  0.90588623  1
  C  C3646  1  0.63660405  0.39232988  0.91527044  1
  C  C3647  1  0.64377367  0.40635738  0.94488256  1
  Cu  Cu3648  1  0.58559644  0.36284603  0.89318189  1
  C  C3649  1  0.58910086  0.35556840  0.78802408  1
  C  C3650  1  0.61476467  0.36447783  0.80269249  1
  O  O3651  1  0.52543820  0.39492253  0.86055165  1
  O  O3652  1  0.57142991  0.38397713  0.86017533  1
  C  C3653  1  0.55270279  0.40264424  0.86037742  1
  C  C3654  1  0.64573150  0.40435156  0.82112097  1
  C  C3655  1  0.61903797  0.39360770  0.80603386  1
  C  C3656  1  0.56060503  0.43257892  0.86373857  1
  H  H3657  1  0.60625383  0.42512558  0.87266139  1
  C  C3658  1  0.59059810  0.44132120  0.86765787  1
  C  C3659  1  0.53796491  0.45188140  0.85850921  1
  C  C3660  1  0.59874481  0.41226801  0.79375197  1
  H  H3661  1  0.60363879  0.43449036  0.79368825  1
  C  C3662  1  0.56771037  0.37308993  0.77534561  1
  C  C3663  1  0.57317725  0.40212900  0.77888120  1
  H  H3664  1  0.59694654  0.41212312  0.95831414  1
  C  C3665  1  0.62074668  0.41511583  0.96439452  1
  C  C3666  1  0.59691931  0.46897195  0.86638812  1
  O  O3667  1  0.64897748  0.42995027  0.82138327  1
  O  O3668  1  0.65000086  0.46001019  0.88060078  1
  H  H3669  1  0.54787929  0.36463570  0.76281087  1
  O  O3670  1  0.65779022  0.38294329  0.89894043  1
  C  C3671  1  0.55144975  0.42069911  0.76593685  1
  O  O3672  1  0.57010707  0.48302707  0.96329368  1
  C  C3673  1  0.57585614  0.48949668  0.85929591  1
  C  C3674  1  0.62873056  0.42365497  0.99477711  1
  O  O3675  1  0.61787691  0.48292940  0.95601354  1
  Cu  Cu3676  1  0.55708891  0.46342501  0.99419200  1
  O  O3677  1  0.66471777  0.38783500  0.83411617  1
  O  O3678  1  0.52764914  0.41201333  0.75323098  1
  O  O3679  1  0.55727129  0.44664548  0.76824168  1
  O  O3680  1  0.73173079  0.33484768  0.79027890  1
  C  C3681  1  0.67419662  0.40877983  0.95205636  1
  C  C3682  1  0.73042949  0.34632124  0.85623284  1
  Cu  Cu3683  1  0.67721583  0.45001542  0.85023534  1
  H  H3684  1  0.68068675  0.42722261  0.77770578  1
  C  C3685  1  0.73003047  0.34873676  0.88888603  1
  O  O3686  1  0.78630366  0.48262286  0.85759346  1
  Cu  Cu3687  1  0.68608516  0.39764765  0.86597509  1
  C  C3688  1  0.68030148  0.41823549  0.98204220  1
  O  O3689  1  0.74242975  0.47780850  0.81318885  1
  H  H3690  1  0.69219202  0.40271809  0.93556214  1
  O  O3691  1  0.73160497  0.41880929  0.97113193  1
  O  O3692  1  0.73174968  0.37493849  0.93345113  1
  Cu  Cu3693  1  0.78446993  0.47147099  0.81736270  1
  H  H3694  1  0.73113897  0.36447503  0.83920120  1
  C  C3695  1  0.72909449  0.37609468  0.90415746  1
  O  O3696  1  0.70963366  0.44585977  0.82481881  1
  O  O3697  1  0.72138151  0.39649387  0.88792363  1
  C  C3698  1  0.72179124  0.46127366  0.80489869  1
  O  O3699  1  0.78995663  0.46423626  0.77666994  1
  C  C3700  1  0.71443361  0.45900391  0.77112196  1
  Cu  Cu3701  1  0.76113463  0.39096395  0.95913513  1
  O  O3702  1  0.78824859  0.45384581  0.89893240  1
  O  O3703  1  0.79277710  0.40265407  0.98148527  1
  C  C3704  1  0.79966364  0.46932849  0.88074950  1
  C  C3705  1  0.71173861  0.42061788  0.99321864  1
  C  C3706  1  0.81726688  0.46036617  0.76845642  1
  C  C3707  1  0.69239271  0.44081835  0.76183399  1
  H  H3708  1  0.74762810  0.49002840  0.75576243  1
  H  H3709  1  0.82642656  0.43624793  0.99600603  1
  O  O3710  1  0.80926969  0.49711418  0.96009434  1
  C  C3711  1  0.83295820  0.47195953  0.88132003  1
  H  H3712  1  0.82971768  0.33459505  0.88708810  1
  O  O3713  1  0.80335973  0.36135181  0.99977409  1
  C  C3714  1  0.86928153  0.34652986  0.77618602  1
  C  C3715  1  0.94706535  0.41811447  0.99002206  1
  Cu  Cu3716  1  0.91791288  0.38727033  0.76209104  1
  H  H3717  1  0.95304583  0.33794627  0.83431333  1
  O  O3718  1  0.84411719  0.37142697  0.92543207  1
  H  H3719  1  0.99516838  0.43262209  0.96071727  1
  C  C3720  1  0.98296719  0.45155597  0.96739137  1
  C  C3721  1  0.87795444  0.45974993  0.90421656  1
  C  C3722  1  0.87692392  0.49092711  0.86030596  1
  C  C3723  1  0.97610818  0.34679619  0.83615442  1
  O  O3724  1  0.85753412  0.34041268  0.80045298  1
  O  O3725  1  0.88118659  0.36413971  0.95608303  1
  C  C3726  1  0.84699436  0.45588019  0.90421635  1
  C  C3727  1  0.97193569  0.36808204  0.78407107  1
  C  C3728  1  0.99164318  0.34380157  0.86402319  1
  O  O3729  1  0.94390715  0.36371881  0.78351823  1
  C  C3730  1  0.95702799  0.44752085  0.98400477  1
  C  C3731  1  0.89618286  0.44281680  0.92664119  1
  O  O3732  1  0.92261368  0.44222854  0.92685829  1
  H  H3733  1  0.83683684  0.44143463  0.92168712  1
  Cu  Cu3734  1  0.89426950  0.39720551  0.96945843  1
  C  C3735  1  0.99064085  0.36199204  0.81247990  1
  C  C3736  1  0.84602266  0.49010649  0.85969502  1
  H  H3737  1  0.91636477  0.47654279  0.87994149  1
  O  O3738  1  0.83715307  0.47068805  0.78424699  1
  C  C3739  1  0.94020672  0.47001875  0.99394143  1
  O  O3740  1  0.98460808  0.37622976  0.76049246  1
  O  O3741  1  0.88042825  0.42521254  0.94388594  1
  C  C3742  1  0.86301532  0.35611900  0.93429886  1
  C  C3743  1  0.99076635  0.47878347  0.95715945  1
  O  O3744  1  0.96412260  0.40021343  0.98272364  1
  C  C3745  1  0.95024187  0.49702986  0.98706811  1
  O  O3746  1  0.87880556  0.37183726  0.77082922  1
  C  C3747  1  0.89288167  0.47696731  0.88289856  1
  O  O3748  1  0.91981326  0.41241413  0.99825206  1
  H  H3749  1  0.87091658  0.44139552  0.75052860  1
  C  C3750  1  0.58781864  0.63241065  0.20541375  1
  O  O3751  1  0.59811946  0.57147123  0.21723425  1
  C  C3752  1  0.64022029  0.56836413  0.17269646  1
  C  C3753  1  0.61240695  0.55694552  0.16592909  1
  C  C3754  1  0.61838620  0.64265876  0.19657249  1
  C  C3755  1  0.64036060  0.64659587  0.21914396  1
  C  C3756  1  0.59119966  0.56030379  0.19247147  1
  H  H3757  1  0.64605842  0.57963101  0.19441647  1
  C  C3758  1  0.60342291  0.54201485  0.13974039  1
  C  C3759  1  0.62692007  0.54012174  0.11942994  1
  O  O3760  1  0.56689306  0.54786626  0.18853135  1
  H  H3761  1  0.57933487  0.53508093  0.13559451  1
  O  O3762  1  0.56983548  0.62914113  0.18576204  1
  C  C3763  1  0.62349052  0.52092915  0.09127565  1
  C  C3764  1  0.51462755  0.51942254  0.12137900  1
  O  O3765  1  0.64204062  0.52065103  0.07092386  1
  C  C3766  1  0.52013408  0.51678731  0.15467233  1
  O  O3767  1  0.64781713  0.60236122  0.01672351  1
  H  H3768  1  0.60587247  0.64378020  0.14596512  1
  O  O3769  1  0.60127876  0.50330716  0.09196865  1
  O  O3770  1  0.58429508  0.62438720  0.23480656  1
  Cu  Cu3771  1  0.55929936  0.51075480  0.20041348  1
  C  C3772  1  0.65524084  0.55259722  0.11968966  1
  C  C3773  1  0.62328442  0.64795047  0.16427376  1
  C  C3774  1  0.66062185  0.56612687  0.14829908  1
  C  C3775  1  0.50749375  0.50147722  0.24214310  1
  H  H3776  1  0.63488551  0.64090854  0.24379635  1
  O  O3777  1  0.50007686  0.52413862  0.17469066  1
  C  C3778  1  0.65054628  0.65943783  0.15669211  1
  O  O3779  1  0.56788283  0.51574451  0.24166694  1
  H  H3780  1  0.59446245  0.60162113  0.00627341  1
  C  C3781  1  0.50831897  0.52791398  0.05705881  1
  H  H3782  1  0.50732842  0.52989688  0.03005153  1
  O  O3783  1  0.54156551  0.50158095  0.16319311  1
  O  O3784  1  0.64351000  0.66265882  0.10327882  1
  C  C3785  1  0.52829484  0.50818708  0.06850263  1
  C  C3786  1  0.53180390  0.50374040  0.10098886  1
  C  C3787  1  0.65037631  0.57847352  0.00430107  1
  C  C3788  1  0.66706870  0.65794508  0.20974347  1
  O  O3789  1  0.69922673  0.50382611  0.12300884  1
  Cu  Cu3790  1  0.67226496  0.63389114  0.01186454  1
  H  H3791  1  0.67196174  0.55112110  0.10186424  1
  C  C3792  1  0.79834024  0.51495711  0.07986333  1
  O  O3793  1  0.69247560  0.59011944  0.18072805  1
  C  C3794  1  0.68957910  0.58131738  0.15368051  1
  O  O3795  1  0.72705346  0.52726101  0.15629624  1
  O  O3796  1  0.71077224  0.58013747  0.13355581  1
  Cu  Cu3797  1  0.74331164  0.55802874  0.13655290  1
  O  O3798  1  0.76415779  0.58651295  0.11957499  1
  C  C3799  1  0.79205658  0.58377816  0.12188651  1
  O  O3800  1  0.80850936  0.60162780  0.13401110  1
  C  C3801  1  0.80246339  0.55614797  0.11093613  1
  H  H3802  1  0.76294705  0.54652248  0.08375416  1
  C  C3803  1  0.78552927  0.53926860  0.09122478  1
  Cu  Cu3804  1  0.80904148  0.63705890  0.11830542  1
  C  C3805  1  0.82539389  0.50457935  0.08968646  1
  C  C3806  1  0.71508107  0.50448727  0.14587772  1
  O  O3807  1  0.81241448  0.64520690  0.23925795  1
  C  C3808  1  0.82865915  0.54628133  0.12360515  1
  C  C3809  1  0.69143938  0.66335059  0.23308116  1
  O  O3810  1  0.69812685  0.66431038  0.01046462  1
  C  C3811  1  0.67261980  0.66570360  0.17891196  1
  C  C3812  1  0.76926460  0.59226654  0.00381715  1
  O  O3813  1  0.77051091  0.61276993  0.01849385  1
  O  O3814  1  0.93648540  0.50609404  0.07935420  1
  C  C3815  1  0.83897588  0.51981340  0.11373970  1
  C  C3816  1  0.92041447  0.50653496  0.24891866  1
  C  C3817  1  0.86696046  0.51024770  0.12738661  1
  H  H3818  1  0.84178262  0.55748075  0.14152392  1
  O  O3819  1  0.85068444  0.64223545  0.12716188  1
  H  H3820  1  0.85269639  0.60684975  0.16789502  1
  C  C3821  1  0.98620678  0.61798450  0.02109495  1
  Cu  Cu3822  1  0.89538651  0.51405357  0.05545560  1
  O  O3823  1  0.93980298  0.51812978  0.23031380  1
  O  O3824  1  0.87950907  0.52320886  0.14863405  1
  H  H3825  1  0.98630942  0.56051024  0.08985188  1
  O  O3826  1  0.90100714  0.55405389  0.06130361  1
  H  H3827  1  0.94126117  0.58035437  0.03355707  1
  C  C3828  1  0.94598833  0.59491620  0.05233455  1
  Cu  Cu3829  1  0.91202543  0.54641698  0.14569214  1
  C  C3830  1  0.92943251  0.59216072  0.07970104  1
  O  O3831  1  0.85997448  0.56830556  0.20660103  1
  C  C3832  1  0.95462609  0.63242026  0.10137795  1
  Cu  Cu3833  1  0.93695201  0.55068374  0.20526925  1
  O  O3834  1  0.95108054  0.56718355  0.14459289  1
  C  C3835  1  0.93537130  0.61003197  0.10485314  1
  C  C3836  1  0.90754391  0.56934761  0.08379909  1
  O  O3837  1  0.89675919  0.56726811  0.11126702  1
  O  O3838  1  0.96939609  0.54222231  0.18252167  1
  C  C3839  1  0.97030877  0.55026029  0.15365342  1
  H  H3840  1  0.92530843  0.60515792  0.12725734  1
  C  C3841  1  0.87068946  0.61968830  0.17991655  1
  C  C3842  1  0.88697482  0.60991447  0.20434607  1
  C  C3843  1  0.88234403  0.57866441  0.21416412  1
  C  C3844  1  0.87827185  0.64753257  0.17158153  1
  C  C3845  1  0.91046210  0.62333114  0.22077911  1
  C  C3846  1  0.96814830  0.61528577  0.04928872  1
  C  C3847  1  0.97142444  0.63481326  0.07397254  1
  O  O3848  1  0.90472466  0.56348324  0.22976237  1
  C  C3849  1  0.95905729  0.65397553  0.12776239  1
  O  O3850  1  0.94691637  0.65035288  0.15152089  1
  O  O3851  1  0.90882604  0.51681665  0.01214101  1
  C  C3852  1  0.91226911  0.65163112  0.21217436  1
  C  C3853  1  0.99489055  0.53921280  0.13533021  1
  O  O3854  1  0.98529857  0.59794421  0.00091825  1
  C  C3855  1  0.86442294  0.66003627  0.14355633  1
  H  H3856  1  0.98737650  0.65181045  0.07201193  1
  H  H3857  1  0.92328480  0.61284450  0.24041187  1
  C  C3858  1  0.89764103  0.66514918  0.18750475  1
  C  C3859  1  0.65955500  0.66864512  0.12479088  1
  C  C3860  1  0.50463468  0.78365003  0.23992394  1
  O  O3861  1  0.50356228  0.78574961  0.06814540  1
  C  C3862  1  0.59989406  0.81042509  0.06669156  1
  O  O3863  1  0.58830853  0.78644318  0.06798952  1
  C  C3864  1  0.63179352  0.81246777  0.06581898  1
  Cu  Cu3865  1  0.54669633  0.78318088  0.06764052  1
  H  H3866  1  0.63677187  0.76681514  0.07206962  1
  C  C3867  1  0.64716600  0.78751127  0.06863422  1
  O  O3868  1  0.54659296  0.77151012  0.02556589  1
  C  C3869  1  0.52360273  0.76023871  0.01221878  1
  O  O3870  1  0.51941427  0.73584718  0.01159291  1
  H  H3871  1  0.52513367  0.81556988  0.00874263  1
  O  O3872  1  0.50140614  0.83162834  0.07353357  1
  O  O3873  1  0.58424407  0.83250609  0.06769415  1
  H  H3874  1  0.50289694  0.80427847  0.22863608  1
  O  O3875  1  0.70572225  0.66863806  0.06165497  1
  H  H3876  1  0.75809101  0.66822279  0.07733920  1
  O  O3877  1  0.71699192  0.67469655  0.22585636  1
  H  H3878  1  0.69369171  0.67462475  0.17375171  1
  O  O3879  1  0.68516424  0.68163135  0.11932609  1
  O  O3880  1  0.80243673  0.67106141  0.09897846  1
  O  O3881  1  0.68075399  0.73931726  0.08420633  1
  C  C3882  1  0.71480608  0.66981570  0.03346538  1
  C  C3883  1  0.67821267  0.78741513  0.06779148  1
  C  C3884  1  0.81447143  0.68055337  0.07438023  1
  O  O3885  1  0.79894399  0.68505916  0.19237968  1
  C  C3886  1  0.76463385  0.67601663  0.05335633  1
  C  C3887  1  0.74541931  0.67952654  0.02836435  1
  Cu  Cu3888  1  0.68919858  0.70138399  0.08260103  1
  C  C3889  1  0.79438007  0.68440357  0.04807971  1
  C  C3890  1  0.69460411  0.81033319  0.05738233  1
  C  C3891  1  0.69545148  0.76085094  0.07331842  1
  H  H3892  1  0.77616615  0.75913574  0.22383371  1
  C  C3893  1  0.78708056  0.75963272  0.20238008  1
  O  O3894  1  0.76779555  0.70393301  0.22593334  1
  C  C3895  1  0.78444722  0.70623914  0.20289722  1
  C  C3896  1  0.79710974  0.78353895  0.18747993  1
  C  C3897  1  0.79260337  0.73305107  0.18920769  1
  C  C3898  1  0.78965074  0.81097656  0.20191499  1
  C  C3899  1  0.81256147  0.78304095  0.15865124  1
  C  C3900  1  0.81780103  0.75670277  0.14719123  1
  C  C3901  1  0.80772207  0.73188981  0.16091593  1
  H  H3902  1  0.81219348  0.71163666  0.15186309  1
  O  O3903  1  0.72119067  0.75915017  0.06892091  1
  H  H3904  1  0.71995590  0.81051031  0.05414002  1
  C  C3905  1  0.80295729  0.69738684  0.02001219  1
  O  O3906  1  0.77757269  0.81048858  0.22726723  1
  H  H3907  1  0.82529454  0.70377725  0.01519593  1
  H  H3908  1  0.81779734  0.80264544  0.14731722  1
  Cu  Cu3909  1  0.83284325  0.66827503  0.20822079  1
  Cu  Cu3910  1  0.75209261  0.67225986  0.24810890  1
  C  C3911  1  0.93481930  0.66797614  0.23160709  1
  C  C3912  1  0.83368625  0.75725182  0.11671215  1
  O  O3913  1  0.83705776  0.73667992  0.09913071  1
  O  O3914  1  0.84524073  0.78045728  0.10928108  1
  O  O3915  1  0.98145478  0.67174099  0.12508352  1
  O  O3916  1  0.84145744  0.68769209  0.07194830  1
  C  C3917  1  0.84693922  0.76967015  0.23969778  1
  H  H3918  1  0.85635432  0.77555039  0.21628996  1
  Cu  Cu3919  1  0.85939362  0.78679409  0.07161299  1
  O  O3920  1  0.85245564  0.69608158  0.23482701  1
  O  O3921  1  0.86847268  0.68507514  0.13581339  1
  C  C3922  1  0.85951608  0.72127428  0.22845818  1
  O  O3923  1  0.86966425  0.79414843  0.03154230  1
  O  O3924  1  0.86950633  0.72872320  0.20423758  1
  H  H3925  1  0.90167315  0.68655104  0.18232753  1
  Cu  Cu3926  1  0.86555036  0.70860882  0.09999841  1
  C  C3927  1  0.90329304  0.75846028  0.10718741  1
  H  H3928  1  0.92133622  0.74332236  0.16369463  1
  C  C3929  1  0.92423661  0.80467713  0.12295635  1
  C  C3930  1  0.93692872  0.78398091  0.18069362  1
  C  C3931  1  0.94489294  0.77326767  0.21326237  1
  O  O3932  1  0.89610185  0.73319025  0.11395233  1
  C  C3933  1  0.91709360  0.77710359  0.12990521  1
  C  C3934  1  0.92515086  0.76583164  0.15881315  1
  O  O3935  1  0.89748083  0.76859289  0.08133852  1
  H  H3936  1  0.92132138  0.81406953  0.09955051  1
  O  O3937  1  0.94132202  0.74578567  0.21504618  1
  C  C3938  1  0.94100605  0.81219217  0.17682668  1
  O  O3939  1  0.95616039  0.78608499  0.23362703  1
  O  O3940  1  0.93992980  0.69397776  0.22598654  1
  O  O3941  1  0.85788652  0.75314041  0.01418948  1
  C  C3942  1  0.85855852  0.77827576  0.01064181  1
  C  C3943  1  0.93468074  0.82198357  0.14651427  1
  H  H3944  1  0.98897985  0.70890305  0.00340554  1
  H  H3945  1  0.95175591  0.82288820  0.19538129  1
  O  O3946  1  0.84716571  0.82941638  0.22529447  1
  C  C3947  1  0.99786101  0.73047317  0.00214879  1
  C  C3948  1  0.64714326  0.83800225  0.06256497  1
  Cu  Cu3949  1  0.54195685  0.83582781  0.07423555  1
  C  C3950  1  0.65981648  0.98527059  0.22415892  1
  Cu  Cu3951  1  0.63248034  0.99430970  0.16445003  1
  O  O3952  1  0.51880200  0.84965103  0.14928359  1
  O  O3953  1  0.54316339  0.86270011  0.10688995  1
  H  H3954  1  0.63624302  0.85794027  0.05840561  1
  C  C3955  1  0.53727576  0.86330973  0.13706772  1
  H  H3956  1  0.52680971  0.87261337  0.20000970  1
  O  O3957  1  0.62136043  0.95718406  0.17245381  1
  O  O3958  1  0.62061663  0.93487763  0.12734939  1
  C  C3959  1  0.54433522  0.88568295  0.18968928  1
  C  C3960  1  0.55412646  0.88306854  0.15858889  1
  C  C3961  1  0.55579565  0.90671242  0.20863294  1
  H  H3962  1  0.58953266  0.93970231  0.21364096  1
  H  H3963  1  0.58377842  0.90070497  0.12202753  1
  C  C3964  1  0.57753575  0.89979584  0.14727017  1
  C  C3965  1  0.61137839  0.93832468  0.15545443  1
  C  C3966  1  0.57957257  0.92318132  0.19892741  1
  C  C3967  1  0.58885051  0.91925427  0.16805835  1
  C  C3968  1  0.54136385  0.90884364  0.23983752  1
  O  O3969  1  0.65699729  0.98247641  0.10617147  1
  Cu  Cu3970  1  0.65910657  0.94296353  0.11368105  1
  O  O3971  1  0.52006089  0.89216922  0.24761316  1
  O  O3972  1  0.65960495  0.99969528  0.19704298  1
  C  C3973  1  0.63842009  0.99267030  0.24908072  1
  O  O3974  1  0.60450514  0.85829011  0.00038473  1
  C  C3975  1  0.67766066  0.83519099  0.05917448  1
  O  O3976  1  0.79525701  0.83484662  0.18828299  1
  O  O3977  1  0.67679843  0.96707652  0.23010931  1
  Cu  Cu3978  1  0.72662289  0.99659399  0.14855477  1
  O  O3979  1  0.68371817  0.88340980  0.04792511  1
  O  O3980  1  0.72305521  0.85558332  0.04463352  1
  O  O3981  1  0.70261107  0.94283440  0.10244163  1
  O  O3982  1  0.72301987  0.95942004  0.14487721  1
  C  C3983  1  0.69515313  0.86172896  0.05211470  1
  C  C3984  1  0.72395032  0.94315553  0.12027962  1
  H  H3985  1  0.76439129  0.92867136  0.16417963  1
  O  O3986  1  0.80234961  0.91388543  0.19288310  1
  H  H3987  1  0.73942484  0.91254108  0.06723420  1
  O  O3988  1  0.77160906  0.88578178  0.03048983  1
  C  C3989  1  0.80891683  0.89990820  0.16888799  1
  C  C3990  1  0.74796092  0.92302925  0.11585139  1
  C  C3991  1  0.76686811  0.91996902  0.14159325  1
  C  C3992  1  0.75393955  0.90923041  0.08799061  1
  C  C3993  1  0.77872760  0.89164033  0.08657053  1
  C  C3994  1  0.78678239  0.87773901  0.05644456  1
  C  C3995  1  0.79781416  0.88774904  0.11253246  1
  C  C3996  1  0.79170970  0.90224743  0.13999873  1
  H  H3997  1  0.81997320  0.87930295  0.11014704  1
  O  O3998  1  0.80574232  0.86047250  0.05398617  1
  O  O3999  1  0.81119847  0.93330326  0.03439336  1
  H  H4000  1  0.80889189  0.94903942  0.09025609  1
  O  O4001  1  0.80255513  0.96992370  0.14229581  1
  Cu  Cu4002  1  0.74484518  0.86118153  0.00498434  1
  O  O4003  1  0.83018665  0.88207446  0.16813638  1
  C  C4004  1  0.82561297  0.95973587  0.14901607  1
  Cu  Cu4005  1  0.79007750  0.92159978  0.00040518  1
  Cu  Cu4006  1  0.82557900  0.94449985  0.21443827  1
  C  C4007  1  0.83261672  0.94261013  0.09269463  1
  H  H4008  1  0.99713952  0.93890013  0.21958948  1
  O  O4009  1  0.94092080  0.99335020  0.02549111  1
  C  C4010  1  0.96663289  0.99876116  0.02745467  1
  O  O4011  1  0.99626359  0.91035192  0.16796327  1
  Cu  Cu4012  1  0.83455839  0.85374454  0.19721066  1
  O  O4013  1  0.95897165  0.89333820  0.23407060  1
  O  O4014  1  0.93524635  0.86057529  0.11184322  1
  O  O4015  1  0.94817311  0.86702541  0.16086407  1
  C  C4016  1  0.94032212  0.90940379  0.22664213  1
  C  C4017  1  0.84486951  0.94747024  0.12185574  1
  O  O4018  1  0.97464057  0.89285586  0.04573780  1
  H  H4019  1  0.95964268  0.94191802  0.03579881  1
  C  C4020  1  0.99136239  0.97744699  0.03104516  1
  C  C4021  1  0.89164155  0.93151243  0.10304118  1
  C  C4022  1  0.94004103  0.85076880  0.13891870  1
  O  O4023  1  0.93000344  0.91035470  0.19779126  1
  C  C4024  1  0.89911938  0.94208720  0.24751776  1
  H  H4025  1  0.88425469  0.95221439  0.15008806  1
  O  O4026  1  0.85506171  0.91855259  0.01624734  1
  O  O4027  1  0.93535402  0.93232352  0.13523083  1
  H  H4028  1  0.89331599  0.91480241  0.05438998  1
  Cu  Cu4029  1  0.95671180  0.88150051  0.08122895  1
  O  O4030  1  0.83685826  0.96004480  0.17702170  1
  C  C4031  1  0.98335962  0.94926829  0.03438633  1
  O  O4032  1  0.94000887  0.91851743  0.08702562  1
  C  C4033  1  0.84960252  0.93016236  0.06881920  1
  Cu  Cu4034  1  0.95459834  0.90610870  0.16362460  1
  O  O4035  1  0.84699124  0.97220120  0.23553143  1
  C  C4036  1  0.87572114  0.94426113  0.12688237  1
  C  C4037  1  0.92388492  0.92722312  0.10864965  1
  H  H4038  1  0.88829688  0.93947766  0.22503670  1
  C  C4039  1  0.83781196  0.92612619  0.03752262  1
  C  C4040  1  0.87979963  0.92528392  0.07318386  1
  C  C4041  1  0.58866894  0.54331842  0.37494181  1
  H  H4042  1  0.57717985  0.59991894  0.38001804  1
  C  C4043  1  0.59882389  0.59242768  0.38803449  1
  C  C4044  1  0.57043660  0.52515093  0.45329525  1
  O  O4045  1  0.56320008  0.55299884  0.36867979  1
  C  C4046  1  0.60831382  0.56451858  0.38738846  1
  C  C4047  1  0.64453266  0.62443409  0.33465250  1
  C  C4048  1  0.54643136  0.51071259  0.43522344  1
  C  C4049  1  0.60191544  0.58701658  0.31444972  1
  C  C4050  1  0.62983243  0.57928268  0.32486685  1
  C  C4051  1  0.59296714  0.61529575  0.31285898  1
  O  O4052  1  0.59541209  0.51753306  0.37065420  1
  O  O4053  1  0.61928673  0.52979904  0.31451818  1
  C  C4054  1  0.63851286  0.54914560  0.32302298  1
  C  C4055  1  0.61567517  0.63195809  0.32486503  1
  C  C4056  1  0.61937538  0.61158885  0.39924306  1
  C  C4057  1  0.63530047  0.55594498  0.39996914  1
  C  C4058  1  0.56688740  0.55336998  0.45891962  1
  H  H4059  1  0.54542381  0.56316303  0.45273467  1
  H  H4060  1  0.58733308  0.57002811  0.30594387  1
  H  H4061  1  0.64187951  0.53372321  0.39668029  1
  C  C4062  1  0.56479571  0.62361337  0.30024383  1
  C  C4063  1  0.59753954  0.51217443  0.46098552  1
  O  O4064  1  0.54988333  0.60821567  0.28289742  1
  C  C4065  1  0.62083311  0.52871982  0.47155230  1
  C  C4066  1  0.58883134  0.56812826  0.47578541  1
  Cu  Cu4067  1  0.53176634  0.53675041  0.38614715  1
  O  O4068  1  0.52497597  0.52562873  0.42687979  1
  C  C4069  1  0.61319771  0.64245663  0.40057232  1
  C  C4070  1  0.65348858  0.59658720  0.33205115  1
  O  O4071  1  0.55892934  0.55435341  0.26652232  1
  O  O4072  1  0.55704357  0.64842534  0.30725793  1
  C  C4073  1  0.61764179  0.55712613  0.47825141  1
  C  C4074  1  0.64736459  0.60428939  0.40980774  1
  O  O4075  1  0.58922968  0.64930303  0.39274945  1
  C  C4076  1  0.64910394  0.51593426  0.48134758  1
  C  C4077  1  0.54975168  0.53211142  0.25407058  1
  O  O4078  1  0.55682690  0.60497556  0.47721385  1
  C  C4079  1  0.58253186  0.59689439  0.48317168  1
  C  C4080  1  0.65498369  0.57603968  0.41134628  1
  H  H4081  1  0.66190146  0.61946294  0.42138915  1
  H  H4082  1  0.63618871  0.56913600  0.48556544  1
  H  H4083  1  0.61160715  0.65454789  0.32659973  1
  C  C4084  1  0.51750966  0.52797982  0.25352151  1
  O  O4085  1  0.50180764  0.51942726  0.32546280  1
  H  H4086  1  0.50518016  0.56566549  0.27510129  1
  Cu  Cu4087  1  0.57215485  0.58898584  0.25064801  1
  O  O4088  1  0.63548274  0.65986859  0.40820505  1
  O  O4089  1  0.50170430  0.60934852  0.36924158  1
  O  O4090  1  0.60295170  0.61285920  0.49473433  1
  Cu  Cu4091  1  0.52277305  0.66326852  0.32688623  1
  O  O4092  1  0.66316190  0.54141198  0.32873179  1
  C  C4093  1  0.66436276  0.64848674  0.34403102  1
  O  O4094  1  0.67045513  0.53038837  0.48867359  1
  H  H4095  1  0.67612352  0.58806068  0.33710926  1
  C  C4096  1  0.68560428  0.56700966  0.42207668  1
  O  O4097  1  0.68971804  0.54031277  0.42732452  1
  O  O4098  1  0.68975977  0.64492411  0.34864435  1
  O  O4099  1  0.70251942  0.58503384  0.42959196  1
  Cu  Cu4100  1  0.70533141  0.52695536  0.46340362  1
  C  C4101  1  0.81838097  0.65231121  0.32384661  1
  C  C4102  1  0.82044518  0.64806056  0.38112862  1
  C  C4103  1  0.82625338  0.64439052  0.29331939  1
  O  O4104  1  0.81153996  0.62776423  0.46809433  1
  C  C4105  1  0.78547958  0.63644167  0.47352972  1
  C  C4106  1  0.76278900  0.61734730  0.48499869  1
  H  H4107  1  0.79189405  0.58031050  0.48278007  1
  C  C4108  1  0.77000601  0.58914527  0.48872699  1
  C  C4109  1  0.80643041  0.65268720  0.26757275  1
  O  O4110  1  0.68815508  0.65369269  0.25920657  1
  H  H4111  1  0.72810747  0.65066005  0.49202647  1
  O  O4112  1  0.77817497  0.66041109  0.46387256  1
  C  C4113  1  0.74679095  0.57111079  0.49636338  1
  C  C4114  1  0.75383888  0.54112821  0.49497867  1
  O  O4115  1  0.73357849  0.52282752  0.49676670  1
  O  O4116  1  0.77945232  0.53270236  0.48819267  1
  C  C4117  1  0.73549371  0.62877417  0.49248388  1
  O  O4118  1  0.79743948  0.66353975  0.38248549  1
  C  C4119  1  0.71409807  0.60855654  0.49953477  1
  O  O4120  1  0.67819929  0.64431212  0.49931549  1
  O  O4121  1  0.83257655  0.63818157  0.40523655  1
  H  H4122  1  0.79864106  0.66602174  0.32706993  1
  C  C4123  1  0.83403754  0.64406114  0.35064251  1
  C  C4124  1  0.89981091  0.50102854  0.44140491  1
  Cu  Cu4125  1  0.83965476  0.65278343  0.44912250  1
  C  C4126  1  0.85127900  0.62735030  0.28981570  1
  C  C4127  1  0.86092891  0.62859921  0.34638880  1
  H  H4128  1  0.85733523  0.61990753  0.26571649  1
  O  O4129  1  0.84783096  0.53134106  0.45070610  1
  O  O4130  1  0.95985686  0.51586036  0.41419582  1
  C  C4131  1  0.86851319  0.62116617  0.31621264  1
  H  H4132  1  0.87475951  0.62204353  0.36604023  1
  H  H4133  1  0.90121991  0.52341209  0.43495318  1
  C  C4134  1  0.89564175  0.60498843  0.31262706  1
  O  O4135  1  0.90951093  0.59746371  0.33504338  1
  O  O4136  1  0.89983716  0.59321630  0.28411315  1
  O  O4137  1  0.98752160  0.56293497  0.43281762  1
  C  C4138  1  0.97790762  0.57318489  0.45968085  1
  C  C4139  1  0.98600617  0.60268126  0.46852775  1
  O  O4140  1  0.96339313  0.56027017  0.47793026  1
  O  O4141  1  0.95627339  0.62836526  0.39630016  1
  Cu  Cu4142  1  0.90537480  0.55568887  0.27690321  1
  C  C4143  1  0.97607669  0.61594616  0.49465863  1
  C  C4144  1  0.95822847  0.64273604  0.37342049  1
  O  O4145  1  0.98039563  0.64150606  0.35351248  1
  C  C4146  1  0.98583553  0.64393602  0.49943102  1
  O  O4147  1  0.90925711  0.51981862  0.27143633  1
  Cu  Cu4148  1  0.99703426  0.52683752  0.42322307  1
  H  H4149  1  0.91784587  0.65780678  0.41633569  1
  C  C4150  1  0.93513146  0.66527877  0.37028185  1
  O  O4151  1  0.90878496  0.60952774  0.49256310  1
  C  C4152  1  0.84751369  0.50784994  0.45883456  1
  O  O4153  1  0.94890647  0.65579819  0.25093534  1
  C  C4154  1  0.50450414  0.70267041  0.28466445  1
  O  O4155  1  0.63360175  0.79872809  0.46934458  1
  H  H4156  1  0.53530628  0.74668970  0.30082561  1
  O  O4157  1  0.56186194  0.80226295  0.42813108  1
  O  O4158  1  0.55937139  0.79893475  0.29605113  1
  C  C4159  1  0.54379238  0.80245477  0.27359540  1
  C  C4160  1  0.52221724  0.75254766  0.27975773  1
  O  O4161  1  0.52442509  0.69811904  0.30619041  1
  Cu  Cu4162  1  0.64584106  0.68927980  0.38229374  1
  C  C4163  1  0.65385790  0.81421939  0.45857567  1
  O  O4164  1  0.65233466  0.67370970  0.34708094  1
  O  O4165  1  0.50744061  0.72792921  0.41586843  1
  O  O4166  1  0.51697601  0.81068773  0.41051592  1
  C  C4167  1  0.54523619  0.81703130  0.41323480  1
  C  C4168  1  0.52276961  0.77853343  0.26496923  1
  H  H4169  1  0.65321563  0.76037577  0.43482770  1
  C  C4170  1  0.50522176  0.73150313  0.26757324  1
  O  O4171  1  0.54414152  0.82622558  0.25870780  1
  O  O4172  1  0.66319198  0.72122359  0.39906799  1
  Cu  Cu4173  1  0.50089814  0.79666174  0.37466369  1
  Cu  Cu4174  1  0.77987054  0.66972386  0.42277242  1
  C  C4175  1  0.66989845  0.77468855  0.42417918  1
  C  C4176  1  0.67220386  0.80284667  0.43363254  1
  C  C4177  1  0.68609496  0.73481288  0.38962670  1
  O  O4178  1  0.70422545  0.72594291  0.37122751  1
  C  C4179  1  0.68775249  0.76531048  0.40030133  1
  O  O4180  1  0.78481791  0.66725698  0.27427907  1
  H  H4181  1  0.72375751  0.77418282  0.36781471  1
  C  C4182  1  0.70814187  0.78255585  0.38470354  1
  C  C4183  1  0.69141715  0.82025261  0.41676232  1
  C  C4184  1  0.71081701  0.81015777  0.39376692  1
  C  C4185  1  0.72489675  0.74102044  0.45633225  1
  C  C4186  1  0.76936748  0.72852302  0.42603237  1
  C  C4187  1  0.75115264  0.75020111  0.44233872  1
  O  O4188  1  0.75979720  0.70415021  0.42696541  1
  C  C4189  1  0.76129892  0.77753914  0.44042430  1
  O  O4190  1  0.79088273  0.73442468  0.40873374  1
  C  C4191  1  0.74661200  0.79698580  0.45995203  1
  H  H4192  1  0.78261559  0.78357660  0.42725263  1
  H  H4193  1  0.71574965  0.71962007  0.45073389  1
  C  C4194  1  0.71054509  0.76079393  0.47554117  1
  C  C4195  1  0.72146783  0.78758588  0.47723859  1
  Cu  Cu4196  1  0.81305065  0.71301839  0.38432978  1
  O  O4197  1  0.74891155  0.82129449  0.35754747  1
  O  O4198  1  0.80937907  0.72227352  0.33999779  1
  O  O4199  1  0.79497728  0.76708934  0.34182517  1
  C  C4200  1  0.80711508  0.74826108  0.32899142  1
  C  C4201  1  0.75380935  0.82594974  0.46246255  1
  C  C4202  1  0.82000557  0.75463800  0.29757047  1
  C  C4203  1  0.73262403  0.82828760  0.37829002  1
  H  H4204  1  0.80938578  0.79785443  0.30214989  1
  C  C4205  1  0.82109571  0.78273939  0.28791241  1
  C  C4206  1  0.68315765  0.75472759  0.49286019  1
  H  H4207  1  0.71222838  0.80362753  0.49173998  1
  O  O4208  1  0.77728898  0.83258988  0.44834740  1
  O  O4209  1  0.67223188  0.72985749  0.49172784  1
  C  C4210  1  0.91581472  0.66989763  0.39416221  1
  O  O4211  1  0.86965204  0.67698769  0.43636558  1
  H  H4212  1  0.83564939  0.71210340  0.28713392  1
  C  C4213  1  0.83389576  0.73419684  0.27957364  1
  C  C4214  1  0.83487526  0.78978175  0.26006219  1
  H  H4215  1  0.95237388  0.67753265  0.32342290  1
  O  O4216  1  0.84881984  0.71086851  0.40868752  1
  C  C4217  1  0.89354366  0.69108371  0.39040188  1
  C  C4218  1  0.86892060  0.69237912  0.41292106  1
  C  C4219  1  0.93579187  0.68051481  0.34238105  1
  H  H4220  1  0.87756631  0.72462320  0.36022956  1
  C  C4221  1  0.89489173  0.70871277  0.36357894  1
  C  C4222  1  0.91493014  0.70169335  0.34090935  1
  C  C4223  1  0.91613281  0.72165872  0.31193860  1
  O  O4224  1  0.93333234  0.71264507  0.28979278  1
  O  O4225  1  0.89910215  0.74012086  0.30914493  1
  C  C4226  1  0.96917945  0.76236761  0.49115765  1
  H  H4227  1  0.98181809  0.80558223  0.49474301  1
  Cu  Cu4228  1  0.93753393  0.72740625  0.25129731  1
  H  H4229  1  0.95495834  0.71878560  0.48906168  1
  C  C4230  1  0.94967662  0.74083995  0.49498738  1
  C  C4231  1  0.96322747  0.79083853  0.49743883  1
  O  O4232  1  0.99813567  0.69384247  0.29343613  1
  C  C4233  1  0.83592018  0.82082541  0.25207007  1
  C  C4234  1  0.84521590  0.74252328  0.25151368  1
  O  O4235  1  0.50297783  0.97643076  0.40513688  1
  H  H4236  1  0.50910346  0.97618376  0.34467082  1
  C  C4237  1  0.51327973  0.99830604  0.34378811  1
  O  O4238  1  0.50202559  0.91045982  0.40034398  1
  C  C4239  1  0.51337666  0.99543512  0.28367025  1
  H  H4240  1  0.60195533  0.83501445  0.42139388  1
  C  C4241  1  0.62229129  0.98804568  0.30316081  1
  C  C4242  1  0.56233232  0.84028475  0.39542902  1
  O  O4243  1  0.60248405  0.98038044  0.35298898  1
  H  H4244  1  0.52534615  0.84997971  0.36452170  1
  C  C4245  1  0.59235031  0.84506009  0.40092122  1
  C  C4246  1  0.62203251  0.97558152  0.33490179  1
  C  C4247  1  0.64092919  0.97986187  0.27828330  1
  C  C4248  1  0.54978293  0.85423610  0.36955006  1
  Cu  Cu4249  1  0.63141184  0.86544808  0.45365064  1
  Cu  Cu4250  1  0.52770025  0.85837316  0.27350659  1
  O  O4251  1  0.51127602  0.96864401  0.28419978  1
  Cu  Cu4252  1  0.52064051  0.94070125  0.41698231  1
  C  C4253  1  0.54983133  0.88745681  0.32547015  1
  H  H4254  1  0.62742545  0.95261754  0.44716404  1
  C  C4255  1  0.61705890  0.94549602  0.46921445  1
  C  C4256  1  0.58633557  0.94451155  0.47396981  1
  C  C4257  1  0.60746406  0.86520760  0.38287892  1
  O  O4258  1  0.64890382  0.86317187  0.41685014  1
  C  C4259  1  0.59637950  0.87816469  0.35527437  1
  C  C4260  1  0.63664324  0.87408601  0.39268105  1
  C  C4261  1  0.56645041  0.87197041  0.35083674  1
  H  H4262  1  0.60976757  0.89108172  0.33900153  1
  C  C4263  1  0.56952084  0.95735949  0.44584573  1
  O  O4264  1  0.58351262  0.96873181  0.42498156  1
  O  O4265  1  0.55955666  0.90977329  0.31459765  1
  O  O4266  1  0.54112603  0.95524796  0.44775707  1
  Cu  Cu4267  1  0.53743652  0.94014378  0.29655140  1
  O  O4268  1  0.52785000  0.87588622  0.31221781  1
  O  O4269  1  0.65101795  0.88981196  0.37422094  1
  O  O4270  1  0.64435125  0.95840510  0.34155139  1
  C  C4271  1  0.63371309  0.94043066  0.49602837  1
  H  H4272  1  0.65936095  0.96548691  0.28150495  1
  O  O4273  1  0.65965356  0.83847612  0.46890184  1
  O  O4274  1  0.65566104  0.98870751  0.42590064  1
  O  O4275  1  0.54992877  0.92845680  0.25614128  1
  C  C4276  1  0.57319777  0.93284913  0.49966036  1
  O  O4277  1  0.61467658  0.87116437  0.49097971  1
  O  O4278  1  0.57892238  0.84258626  0.49846493  1
  O  O4279  1  0.67288828  0.99817284  0.37924871  1
  O  O4280  1  0.82666147  0.83686292  0.27075065  1
  C  C4281  1  0.66746965  0.94399585  0.49125528  1
  C  C4282  1  0.77379565  0.99967746  0.36988119  1
  C  C4283  1  0.73753971  0.99814045  0.48681148  1
  H  H4284  1  0.69127004  0.84245292  0.41968538  1
  O  O4285  1  0.73689683  0.84358030  0.47621593  1
  O  O4286  1  0.72753995  0.97435542  0.36852356  1
  O  O4287  1  0.67851671  0.95015191  0.46316360  1
  Cu  Cu4288  1  0.68985115  0.87464695  0.37645406  1
  O  O4289  1  0.72601363  0.85490128  0.38351308  1
  Cu  Cu4290  1  0.68515294  0.96735666  0.35380496  1
  Cu  Cu4291  1  0.69197461  0.98170522  0.44205180  1
  O  O4292  1  0.70486073  0.91173295  0.37174543  1
  O  O4293  1  0.80750960  0.86367895  0.38439233  1
  H  H4294  1  0.77626112  0.97119690  0.44509780  1
  O  O4295  1  0.69857944  0.93847601  0.33146169  1
  C  C4296  1  0.71535687  0.92206609  0.34675336  1
  H  H4297  1  0.75895336  0.89096226  0.37637292  1
  Cu  Cu4298  1  0.77951155  0.85803155  0.41386328  1
  C  C4299  1  0.81237019  0.87106009  0.35489553  1
  C  C4300  1  0.80296385  0.90257627  0.31068005  1
  C  C4301  1  0.79180296  0.89285108  0.33869098  1
  C  C4302  1  0.76519251  0.89897757  0.35285252  1
  C  C4303  1  0.78411912  0.92148825  0.29581015  1
  C  C4304  1  0.74551513  0.91642975  0.33640853  1
  C  C4305  1  0.75713904  0.92889646  0.30847617  1
  C  C4306  1  0.77567497  0.91567612  0.43813708  1
  O  O4307  1  0.78030035  0.88851802  0.44103322  1
  H  H4308  1  0.77484543  0.95440318  0.36838661  1
  C  C4309  1  0.80179086  0.93246824  0.44848727  1
  C  C4310  1  0.79793058  0.96096912  0.44963805  1
  O  O4311  1  0.75218522  0.92499065  0.42998246  1
  C  C4312  1  0.78827161  0.97350313  0.37235501  1
  H  H4313  1  0.74387696  0.94572170  0.29665695  1
  C  C4314  1  0.79140529  0.93439529  0.26462945  1
  O  O4315  1  0.72838269  0.98199767  0.46510534  1
  C  C4316  1  0.81892740  0.97350981  0.37494626  1
  H  H4317  1  0.82421002  0.89415400  0.29987411  1
  C  C4318  1  0.82461939  0.97535491  0.45629302  1
  C  C4319  1  0.82814353  0.91852326  0.45611831  1
  O  O4320  1  0.81671035  0.92829361  0.25220817  1
  H  H4321  1  0.82823162  0.89590474  0.45441403  1
  H  H4322  1  0.74691415  0.94655134  0.49293831  1
  O  O4323  1  0.83166496  0.92548287  0.37528757  1
  O  O4324  1  0.83199708  0.86163298  0.34023377  1
  C  C4325  1  0.74017755  0.99837846  0.36680815  1
  C  C4326  1  0.83325539  0.99886982  0.37817037  1
  O  O4327  1  0.77218780  0.94833594  0.25308766  1
  O  O4328  1  0.93374050  0.87713835  0.42242199  1
  C  C4329  1  0.85178390  0.96282575  0.46292704  1
  C  C4330  1  0.92539386  0.92661401  0.25166539  1
  O  O4331  1  0.86866823  0.95590530  0.37677609  1
  H  H4332  1  0.97439258  0.84597890  0.40486548  1
  H  H4333  1  0.95815813  0.91518323  0.28849126  1
  H  H4334  1  0.88766790  0.96732504  0.32095423  1
  H  H4335  1  0.85696992  0.99850001  0.38035930  1
  C  C4336  1  0.84030230  0.94930178  0.37642091  1
  C  C4337  1  0.99475494  0.91424033  0.39178396  1
  Cu  Cu4338  1  0.99629217  0.95999668  0.34376334  1
  O  O4339  1  0.85021940  0.99221039  0.28141707  1
  Cu  Cu4340  1  0.90411474  0.94009880  0.39142635  1
  C  C4341  1  0.98921012  0.86406943  0.39807374  1
  C  C4342  1  0.85849575  0.97390720  0.26242373  1
  C  C4343  1  0.85372550  0.93370120  0.46509037  1
  H  H4344  1  0.98345850  0.93554090  0.39484179  1
  C  C4345  1  0.97934189  0.89139511  0.40167170  1
  O  O4346  1  0.99279639  0.97009857  0.26164989  1
  C  C4347  1  0.89707885  0.95629673  0.29987319  1
  Cu  Cu4348  1  0.92946042  0.94556498  0.44453133  1
  O  O4349  1  0.90419040  0.93278990  0.47647628  1
  O  O4350  1  0.92464022  0.95889495  0.35872585  1
  C  C4351  1  0.88118712  0.91813511  0.47267289  1
  O  O4352  1  0.92982706  0.98492531  0.44187166  1
  O  O4353  1  0.93581798  0.92192107  0.41262411  1
  Cu  Cu4354  1  0.96513253  0.99810809  0.27051436  1
  C  C4355  1  0.93756016  0.94838220  0.33518308  1
  C  C4356  1  0.88356293  0.95661277  0.27023625  1
  C  C4357  1  0.94846306  0.89579022  0.41330777  1
  O  O4358  1  0.96379101  0.93878802  0.33970434  1
  O  O4359  1  0.88359742  0.89239665  0.47073458  1
  C  C4360  1  0.92473972  0.94372214  0.30426461  1
  C  C4361  1  0.93818622  0.92674431  0.28143030  1
  H  H4362  1  0.87022829  0.97507695  0.47024786  1
  C  C4363  1  0.55906173  0.57777488  0.69376541  1
  C  C4364  1  0.56815186  0.57861913  0.65865419  1
  O  O4365  1  0.57349185  0.60170512  0.64469193  1
  Cu  Cu4366  1  0.60071229  0.60176790  0.61693885  1
  O  O4367  1  0.62846455  0.59564750  0.58714473  1
  O  O4368  1  0.60312568  0.56503891  0.56005096  1
  O  O4369  1  0.61911727  0.63338450  0.62927020  1
  C  C4370  1  0.62553032  0.57058669  0.57287173  1
  O  O4371  1  0.56702369  0.55729056  0.64530621  1
  C  C4372  1  0.65192394  0.55105403  0.57546472  1
  H  H4373  1  0.55929782  0.53293741  0.69679315  1
  O  O4374  1  0.54722366  0.62716160  0.54558353  1
  Cu  Cu4375  1  0.62396168  0.61704202  0.53414297  1
  H  H4376  1  0.55553868  0.62234130  0.69877802  1
  C  C4377  1  0.55471635  0.60209115  0.71090766  1
  O  O4378  1  0.59436688  0.63440493  0.55603620  1
  C  C4379  1  0.56880490  0.64321238  0.54803109  1
  C  C4380  1  0.63908540  0.63589605  0.65159642  1
  C  C4381  1  0.63126575  0.65473407  0.67910167  1
  C  C4382  1  0.55785868  0.55219025  0.70915460  1
  C  C4383  1  0.64704829  0.52423865  0.56403806  1
  H  H4384  1  0.62517240  0.51704665  0.55859657  1
  H  H4385  1  0.58561836  0.66323990  0.66659687  1
  C  C4386  1  0.60338125  0.66585415  0.68370220  1
  O  O4387  1  0.66154032  0.60363703  0.51521508  1
  C  C4388  1  0.65330940  0.65612971  0.70211735  1
  Cu  Cu4389  1  0.52901399  0.61385278  0.51163760  1
  H  H4390  1  0.51967257  0.66543303  0.52588566  1
  O  O4391  1  0.66013635  0.62161971  0.65156881  1
  C  C4392  1  0.54989659  0.60176445  0.74318697  1
  O  O4393  1  0.54590447  0.65039440  0.74285760  1
  C  C4394  1  0.55399578  0.55163395  0.74190654  1
  O  O4395  1  0.55662051  0.50177761  0.73892182  1
  C  C4396  1  0.67877839  0.56119496  0.58757116  1
  H  H4397  1  0.68017718  0.58139499  0.59782287  1
  C  C4398  1  0.69991700  0.51469500  0.57768853  1
  O  O4399  1  0.75245390  0.53037259  0.60597066  1
  C  C4400  1  0.70227915  0.54240992  0.58952377  1
  O  O4401  1  0.72773311  0.59367707  0.67886686  1
  C  C4402  1  0.73184097  0.54827208  0.60394113  1
  O  O4403  1  0.73401460  0.57175185  0.61614230  1
  O  O4404  1  0.77282255  0.58851615  0.66217258  1
  C  C4405  1  0.75263444  0.58814665  0.68399146  1
  O  O4406  1  0.77511776  0.59317669  0.57712186  1
  Cu  Cu4407  1  0.77072886  0.59134032  0.61776006  1
  C  C4408  1  0.79257284  0.60918916  0.56059523  1
  C  C4409  1  0.76208630  0.58394872  0.71826247  1
  C  C4410  1  0.78875277  0.57029892  0.72241351  1
  H  H4411  1  0.80195140  0.56250234  0.70439526  1
  H  H4412  1  0.80574467  0.55338329  0.55646879  1
  O  O4413  1  0.79044721  0.63387830  0.56243366  1
  C  C4414  1  0.81989990  0.59539585  0.54661619  1
  C  C4415  1  0.82273382  0.56637628  0.54556042  1
  H  H4416  1  0.67444723  0.64555177  0.69926126  1
  O  O4417  1  0.83160719  0.50852864  0.53740787  1
  H  H4418  1  0.69923439  0.56539908  0.50854132  1
  H  H4419  1  0.79807285  0.65516624  0.69924842  1
  O  O4420  1  0.80925966  0.64414782  0.64614557  1
  C  C4421  1  0.81608037  0.64226972  0.70936913  1
  Cu  Cu4422  1  0.75586952  0.50259458  0.63848128  1
  O  O4423  1  0.74903270  0.51460924  0.70556617  1
  O  O4424  1  0.69485273  0.66218718  0.74703898  1
  H  H4425  1  0.72095846  0.59823111  0.73791502  1
  C  C4426  1  0.74456499  0.59288969  0.74313063  1
  C  C4427  1  0.71820868  0.57998509  0.50360925  1
  Cu  Cu4428  1  0.80047823  0.50399448  0.50780880  1
  O  O4429  1  0.71005963  0.65990162  0.57035604  1
  C  C4430  1  0.81811331  0.63969051  0.74227613  1
  H  H4431  1  0.71702479  0.50046445  0.58080472  1
  C  C4432  1  0.67251029  0.50701110  0.56581943  1
  C  C4433  1  0.68318741  0.62044459  0.50426721  1
  C  C4434  1  0.84757988  0.55598385  0.53168383  1
  C  C4435  1  0.85404523  0.52349201  0.52991610  1
  C  C4436  1  0.84139885  0.61313092  0.53298018  1
  H  H4437  1  0.83948449  0.63605258  0.53288512  1
  O  O4438  1  0.83993334  0.54311444  0.73900267  1
  C  C4439  1  0.83377948  0.63264023  0.65615325  1
  C  C4440  1  0.83603737  0.62802025  0.69042439  1
  C  C4441  1  0.85927574  0.61159375  0.70297694  1
  H  H4442  1  0.87821884  0.60391923  0.68905651  1
  C  C4443  1  0.86612391  0.60076769  0.51983975  1
  C  C4444  1  0.87015135  0.57163074  0.51856945  1
  C  C4445  1  0.86066299  0.60877715  0.73541884  1
  O  O4446  1  0.85266824  0.62216427  0.64027445  1
  O  O4447  1  0.95155896  0.64741417  0.53932494  1
  O  O4448  1  0.90285485  0.58058393  0.72884066  1
  C  C4449  1  0.89022159  0.62024705  0.50789212  1
  O  O4450  1  0.87828126  0.51484809  0.52520821  1
  H  H4451  1  0.88908382  0.56116021  0.50672550  1
  O  O4452  1  0.88877708  0.64642116  0.51652068  1
  C  C4453  1  0.88544291  0.59015275  0.74669239  1
  H  H4454  1  0.96197812  0.60760500  0.51366854  1
  C  C4455  1  0.97404594  0.65865526  0.52674698  1
  C  C4456  1  0.64809600  0.67312833  0.72798068  1
  C  C4457  1  0.56452618  0.67343021  0.54095022  1
  Cu  Cu4458  1  0.51835964  0.67582156  0.72415766  1
  C  C4459  1  0.60024941  0.68401831  0.70872231  1
  O  O4460  1  0.54754636  0.68938325  0.69723061  1
  H  H4461  1  0.60939443  0.68504466  0.55743576  1
  C  C4462  1  0.53764405  0.68108319  0.52857603  1
  C  C4463  1  0.53685551  0.78683542  0.68621487  1
  Cu  Cu4464  1  0.58416068  0.75401044  0.65404346  1
  O  O4465  1  0.54786921  0.77497476  0.66044118  1
  O  O4466  1  0.56578003  0.78578204  0.59120836  1
  C  C4467  1  0.58898032  0.79336476  0.60165260  1
  O  O4468  1  0.60072060  0.78219515  0.62712667  1
  C  C4469  1  0.60855820  0.81502926  0.58332306  1
  C  C4470  1  0.58899958  0.69134445  0.54540329  1
  H  H4471  1  0.57309706  0.81637222  0.54669775  1
  C  C4472  1  0.59615649  0.82335060  0.55547254  1
  C  C4473  1  0.58454468  0.71882838  0.53651205  1
  O  O4474  1  0.61578252  0.72987413  0.64717413  1
  O  O4475  1  0.51786975  0.77649351  0.70184082  1
  O  O4476  1  0.52169468  0.80927089  0.52395903  1
  C  C4477  1  0.63714814  0.82270444  0.59237257  1
  O  O4478  1  0.63527629  0.72883006  0.54768420  1
  C  C4479  1  0.61039522  0.73754095  0.53814002  1
  O  O4480  1  0.60600998  0.76201152  0.52927386  1
  H  H4481  1  0.64410236  0.70503796  0.60523799  1
  C  C4482  1  0.63907072  0.72664099  0.66469545  1
  Cu  Cu4483  1  0.63145104  0.78707156  0.51115852  1
  C  C4484  1  0.54646693  0.81645230  0.69469604  1
  C  C4485  1  0.57049038  0.69875601  0.71345839  1
  O  O4486  1  0.64057423  0.73545274  0.69061097  1
  H  H4487  1  0.64680151  0.81395572  0.61349460  1
  C  C4488  1  0.62107856  0.68747612  0.73173354  1
  C  C4489  1  0.53339061  0.70968485  0.52255697  1
  C  C4490  1  0.55743486  0.72799168  0.52579978  1
  H  H4491  1  0.58018011  0.82390680  0.66049087  1
  C  C4492  1  0.53065102  0.82643578  0.72053501  1
  O  O4493  1  0.56811360  0.71892963  0.72949010  1
  H  H4494  1  0.55427968  0.74985505  0.52110754  1
  C  C4495  1  0.66388347  0.70128212  0.62116587  1
  H  H4496  1  0.51197892  0.81442898  0.73099944  1
  O  O4497  1  0.50479147  0.74623653  0.50623598  1
  C  C4498  1  0.50441960  0.72029183  0.51130084  1
  C  C4499  1  0.66581395  0.71042831  0.65193969  1
  C  C4500  1  0.56692965  0.83265604  0.67903812  1
  Cu  Cu4501  1  0.73496898  0.66754293  0.74463957  1
  O  O4502  1  0.66754470  0.68214021  0.56032225  1
  H  H4503  1  0.73173781  0.66821870  0.61850919  1
  O  O4504  1  0.75986585  0.66823013  0.66950121  1
  Cu  Cu4505  1  0.67004073  0.70747582  0.52738646  1
  O  O4506  1  0.67216464  0.77354810  0.50935480  1
  C  C4507  1  0.69021117  0.67450059  0.57688957  1
  C  C4508  1  0.71346285  0.68104363  0.62854747  1
  C  C4509  1  0.73934818  0.68326751  0.68018836  1
  Cu  Cu4510  1  0.79344230  0.68048558  0.64765824  1
  H  H4511  1  0.68968215  0.71361996  0.69487504  1
  C  C4512  1  0.69019152  0.70643081  0.67116774  1
  C  C4513  1  0.68862010  0.68644995  0.61105399  1
  C  C4514  1  0.71439724  0.69082633  0.66030469  1
  O  O4515  1  0.73777935  0.69299516  0.70810645  1
  O  O4516  1  0.74675161  0.81828683  0.58505194  1
  O  O4517  1  0.81602386  0.73101916  0.73654418  1
  H  H4518  1  0.78780764  0.81033922  0.62215521  1
  O  O4519  1  0.81257024  0.77669758  0.73778051  1
  C  C4520  1  0.80376471  0.75437545  0.74554405  1
  C  C4521  1  0.76558158  0.82795107  0.56500249  1
  O  O4522  1  0.75884701  0.83007073  0.53647477  1
  O  O4523  1  0.82099345  0.80835124  0.66835120  1
  O  O4524  1  0.82835033  0.72522927  0.67597718  1
  O  O4525  1  0.82818586  0.69869211  0.63357592  1
  C  C4526  1  0.80168200  0.82565950  0.60840367  1
  O  O4527  1  0.77650474  0.66725935  0.74807531  1
  C  C4528  1  0.93230647  0.82835843  0.51414936  1
  Cu  Cu4529  1  0.98813738  0.69010236  0.57869427  1
  O  O4530  1  0.98332780  0.68111561  0.53743545  1
  O  O4531  1  0.96568438  0.76030465  0.71477253  1
  H  H4532  1  0.95685061  0.67806997  0.72987455  1
  Cu  Cu4533  1  0.91585256  0.66908760  0.54012669  1
  Cu  Cu4534  1  0.85211218  0.72761510  0.71202199  1
  C  C4535  1  0.83928953  0.71723929  0.65074808  1
  O  O4536  1  0.91953603  0.68014759  0.58179017  1
  H  H4537  1  0.87671961  0.69258179  0.60894613  1
  O  O4538  1  0.95515760  0.71056864  0.57855354  1
  H  H4539  1  0.86514300  0.76396966  0.67039470  1
  C  C4540  1  0.86919686  0.72720722  0.64094787  1
  C  C4541  1  0.88510844  0.71267544  0.61810612  1
  C  C4542  1  0.87936244  0.75130039  0.65384184  1
  C  C4543  1  0.93103281  0.70311577  0.59046117  1
  C  C4544  1  0.91398916  0.72180091  0.61138750  1
  C  C4545  1  0.92832321  0.74237623  0.62758041  1
  C  C4546  1  0.91013725  0.75775186  0.64886104  1
  H  H4547  1  0.95132046  0.74775465  0.62473112  1
  O  O4548  1  0.90862921  0.79747314  0.68048892  1
  C  C4549  1  0.92387826  0.78112647  0.66336861  1
  O  O4550  1  0.95111804  0.78705633  0.65787587  1
  O  O4551  1  0.95934734  0.71917950  0.69378499  1
  C  C4552  1  0.96775563  0.73255133  0.71509185  1
  Cu  Cu4553  1  0.98565435  0.77968829  0.68264460  1
  O  O4554  1  0.87815251  0.73194325  0.53307130  1
  C  C4555  1  0.90109095  0.72606109  0.51930440  1
  H  H4556  1  0.89506520  0.78015678  0.52722146  1
  C  C4557  1  0.91563131  0.77553726  0.51561086  1
  O  O4558  1  0.90841144  0.70079208  0.51318020  1
  C  C4559  1  0.93503581  0.79772736  0.50857303  1
  C  C4560  1  0.92196882  0.74814621  0.50852212  1
  O  O4561  1  0.87900141  0.72776742  0.74527691  1
  C  C4562  1  0.97486602  0.71805572  0.74552962  1
  Cu  Cu4563  1  0.89517134  0.83260903  0.66686604  1
  C  C4564  1  0.83440235  0.82636844  0.65508821  1
  C  C4565  1  0.96608806  0.69034396  0.74966342  1
  H  H4566  1  0.52874763  0.84335316  0.57615855  1
  C  C4567  1  0.50846578  0.95818562  0.67098333  1
  C  C4568  1  0.50793406  0.99732615  0.63382076  1
  H  H4569  1  0.53193860  0.99974163  0.63602891  1
  C  C4570  1  0.65236952  0.84135601  0.57407911  1
  C  C4571  1  0.50575151  0.84916156  0.57199891  1
  C  C4572  1  0.61389560  0.84177379  0.53785287  1
  C  C4573  1  0.59869416  0.99760340  0.53808665  1
  C  C4574  1  0.54581208  0.98676679  0.52755949  1
  C  C4575  1  0.64121527  0.85250632  0.54632736  1
  O  O4576  1  0.52397093  0.97305334  0.53262425  1
  C  C4577  1  0.60119740  0.85250075  0.50785261  1
  H  H4578  1  0.64664956  0.97567098  0.59570905  1
  C  C4579  1  0.62665083  0.97859820  0.58142183  1
  C  C4580  1  0.57370812  0.98333308  0.54805274  1
  C  C4581  1  0.56750696  0.86078760  0.68842041  1
  C  C4582  1  0.55343352  0.87164582  0.71559094  1
  O  O4583  1  0.53493543  0.96222011  0.67797228  1
  O  O4584  1  0.54111744  0.87726336  0.61899372  1
  O  O4585  1  0.59807589  0.86949936  0.64455402  1
  C  C4586  1  0.58648410  0.87949069  0.66862339  1
  H  H4587  1  0.55629541  0.89278978  0.72534801  1
  H  H4588  1  0.55281828  0.95596032  0.58166741  1
  C  C4589  1  0.59949432  0.96646762  0.59275843  1
  C  C4590  1  0.57326103  0.96719291  0.57451548  1
  O  O4591  1  0.59071478  0.90373370  0.67830607  1
  O  O4592  1  0.62194951  0.95478809  0.64031093  1
  C  C4593  1  0.59832232  0.95427083  0.62381473  1
  O  O4594  1  0.60890614  0.96096755  0.72418631  1
  Cu  Cu4595  1  0.58075786  0.88065419  0.60684618  1
  O  O4596  1  0.57533229  0.94171316  0.63366185  1
  Cu  Cu4597  1  0.56558846  0.93446823  0.67778252  1
  Cu  Cu4598  1  0.61672899  0.95918233  0.68059060  1
  O  O4599  1  0.59553909  0.89342137  0.56895638  1
  H  H4600  1  0.63769483  0.92041460  0.54232520  1
  C  C4601  1  0.57715295  0.90534705  0.54916546  1
  O  O4602  1  0.55093979  0.90379083  0.55119030  1
  C  C4603  1  0.51566018  0.88753786  0.61181928  1
  C  C4604  1  0.62246105  0.92731452  0.52339375  1
  C  C4605  1  0.59167858  0.92274530  0.52400488  1
  C  C4606  1  0.53447197  0.85349902  0.73146492  1
  O  O4607  1  0.50660476  0.90881571  0.62460936  1
  C  C4608  1  0.58709853  0.94984134  0.73785785  1
  O  O4609  1  0.56813001  0.93571077  0.72409929  1
  C  C4610  1  0.62578284  0.99433801  0.55529752  1
  H  H4611  1  0.65408940  0.86735057  0.53189078  1
  H  H4612  1  0.54780194  0.93295038  0.50003813  1
  O  O4613  1  0.69331505  0.83752672  0.60625038  1
  Cu  Cu4614  1  0.73651130  0.83901237  0.61965485  1
  C  C4615  1  0.79291920  0.83773201  0.57912484  1
  C  C4616  1  0.77526561  0.99896094  0.59769302  1
  O  O4617  1  0.79881004  0.99448651  0.61021674  1
  O  O4618  1  0.75386202  0.99450732  0.72266354  1
  C  C4619  1  0.68300223  0.85033082  0.58362418  1
  O  O4620  1  0.69664991  0.86973479  0.57002109  1
  O  O4621  1  0.75958857  0.98756600  0.67170303  1
  O  O4622  1  0.73143341  0.86186070  0.65527302  1
  C  C4623  1  0.74847539  0.98480221  0.51609741  1
  C  C4624  1  0.75233267  0.97901559  0.69872693  1
  C  C4625  1  0.76638615  0.98330503  0.56899214  1
  Cu  Cu4626  1  0.72522262  0.88831790  0.59161386  1
  H  H4627  1  0.72265277  0.87350623  0.71619323  1
  C  C4628  1  0.76870884  0.95490440  0.57063935  1
  H  H4629  1  0.77853092  0.94381875  0.59081300  1
  C  C4630  1  0.72783297  0.89505894  0.71102843  1
  C  C4631  1  0.74118705  0.95043576  0.70440826  1
  C  C4632  1  0.75978850  0.94156805  0.54282219  1
  O  O4633  1  0.74207676  0.89997317  0.62791897  1
  C  C4634  1  0.73663038  0.88733517  0.65429533  1
  H  H4635  1  0.75093217  0.94197098  0.65549182  1
  C  C4636  1  0.74278432  0.93337508  0.67783049  1
  C  C4637  1  0.75652545  0.91221492  0.54021918  1
  O  O4638  1  0.75863993  0.89853850  0.56527820  1
  C  C4639  1  0.73481680  0.90517740  0.68120923  1
  C  C4640  1  0.73017442  0.94271121  0.73314237  1
  C  C4641  1  0.75188178  0.95555043  0.51500867  1
  O  O4642  1  0.74842576  0.89973208  0.51437325  1
  C  C4643  1  0.72428794  0.91412283  0.73574851  1
  H  H4644  1  0.80675705  0.86162833  0.53914252  1
  C  C4645  1  0.81293956  0.85354745  0.56256523  1
  Cu  Cu4646  1  0.74656460  0.86128353  0.51543405  1
  C  C4647  1  0.75792350  0.99863496  0.54340831  1
  O  O4648  1  0.68213436  0.93998569  0.51427045  1
  C  C4649  1  0.82700785  0.83456877  0.62242270  1
  C  C4650  1  0.92196104  0.90949191  0.66304772  1
  H  H4651  1  0.89785671  0.98825556  0.66875450  1
  H  H4652  1  0.94833998  0.95587222  0.59226168  1
  C  C4653  1  0.92298738  0.99290243  0.60346654  1
  C  C4654  1  0.85924169  0.88082461  0.56150794  1
  C  C4655  1  0.92988810  0.88024762  0.66241224  1
  H  H4656  1  0.86579649  0.86381691  0.61737840  1
  O  O4657  1  0.99029955  0.93986402  0.61161846  1
  C  C4658  1  0.99351000  0.95886172  0.62960301  1
  O  O4659  1  0.95373264  0.84311357  0.51160746  1
  O  O4660  1  0.90629531  0.83874444  0.52287980  1
  C  C4661  1  0.92904059  0.95622845  0.68198037  1
  H  H4662  1  0.94753464  0.92213029  0.74583768  1
  C  C4663  1  0.88905406  0.94608200  0.64762728  1
  C  C4664  1  0.89623134  0.91831940  0.64627196  1
  Cu  Cu4665  1  0.88341636  0.93176956  0.57098939  1
  Cu  Cu4666  1  0.99062820  0.88162496  0.68535757  1
  C  C4667  1  0.86471712  0.95431287  0.62774776  1
  C  C4668  1  0.97088450  0.98078583  0.62656607  1
  O  O4669  1  0.89356346  0.96818757  0.56449800  1
  O  O4670  1  0.85257462  0.97811216  0.62766001  1
  C  C4671  1  0.83849772  0.86365210  0.57830937  1
  C  C4672  1  0.84517830  0.85493456  0.60823761  1
  H  H4673  1  0.88061806  0.90424673  0.63619132  1
  O  O4674  1  0.95175542  0.87140892  0.67793515  1
  C  C4675  1  0.94730459  0.97584832  0.60482018  1
  O  O4676  1  0.85909324  0.93708970  0.60576653  1
  O  O4677  1  0.98793154  0.88991186  0.72786634  1
  O  O4678  1  0.88017000  0.89330294  0.57560770  1
  C  C4679  1  0.94909980  0.97394172  0.70416511  1
  O  O4680  1  0.85592130  0.84141512  0.66726085  1
  O  O4681  1  0.93876874  0.99611452  0.71624439  1
  O  O4682  1  0.85717752  0.88278744  0.53129402  1
  C  C4683  1  0.93820198  0.92856705  0.68118615  1
  O  O4684  1  0.91192035  0.86367055  0.64843476  1
  H  H4685  1  0.96031818  0.92306777  0.69336490  1
  C  C4686  1  0.89792743  0.98841239  0.58299382  1
  C  C4687  1  0.90456011  0.96602374  0.66558471  1
  O  O4688  1  0.97456529  0.96771891  0.70920196  1
  Cu  Cu4689  1  0.91183418  0.99319164  0.74777034  1
  Cu  Cu4690  1  0.88592797  0.86778555  0.50617119  1
  C  C4691  1  0.59131852  0.60986001  0.90947916  1
  C  C4692  1  0.55978448  0.61917926  0.91352312  1
  O  O4693  1  0.55371391  0.63526208  0.93822052  1
  Cu  Cu4694  1  0.52311587  0.62932390  0.96678074  1
  O  O4695  1  0.55253491  0.52190200  0.78507804  1
  H  H4696  1  0.58232405  0.58356257  0.86501513  1
  C  C4697  1  0.59891212  0.59303525  0.88311837  1
  O  O4698  1  0.52638728  0.52530336  0.84498941  1
  C  C4699  1  0.61184825  0.61983402  0.93061994  1
  H  H4700  1  0.55009384  0.57664161  0.78504040  1
  O  O4701  1  0.53624319  0.62918453  0.78747764  1
  O  O4702  1  0.61467862  0.55837561  0.83530980  1
  C  C4703  1  0.62747209  0.58284348  0.88122741  1
  C  C4704  1  0.57024999  0.53698797  0.97980855  1
  C  C4705  1  0.64131962  0.61100319  0.92577420  1
  C  C4706  1  0.63386294  0.56551354  0.85208589  1
  C  C4707  1  0.64889120  0.59155001  0.90277438  1
  H  H4708  1  0.54926335  0.52491521  0.97356564  1
  H  H4709  1  0.58199016  0.51036682  0.85707416  1
  C  C4710  1  0.55080491  0.57637484  0.75950146  1
  C  C4711  1  0.59736935  0.52548118  0.97451444  1
  H  H4712  1  0.64532179  0.53001934  0.97676806  1
  H  H4713  1  0.60618624  0.63364807  0.95030359  1
  C  C4714  1  0.55475434  0.52400163  0.75580030  1
  Cu  Cu4715  1  0.52085324  0.54273947  0.80235294  1
  O  O4716  1  0.54036983  0.61091896  0.89722547  1
  C  C4717  1  0.54315618  0.62844383  0.75862771  1
  C  C4718  1  0.62419715  0.53987243  0.98080829  1
  O  O4719  1  0.63303514  0.50221765  0.87218056  1
  O  O4720  1  0.66188012  0.56293125  0.84314885  1
  O  O4721  1  0.65592116  0.63722104  0.96893473  1
  C  C4722  1  0.66438536  0.62144329  0.94652369  1
  O  O4723  1  0.51689654  0.56668279  0.99015919  1
  C  C4724  1  0.62237875  0.56680917  0.99222553  1
  C  C4725  1  0.56912013  0.56537267  0.98929849  1
  C  C4726  1  0.54043197  0.57962146  0.99179671  1
  C  C4727  1  0.59495937  0.58048337  0.99640005  1
  O  O4728  1  0.50684301  0.60439423  0.83570261  1
  Cu  Cu4729  1  0.50026340  0.63421445  0.80835515  1
  O  O4730  1  0.54055550  0.60657101  0.99468859  1
  H  H4731  1  0.67100547  0.58241985  0.90184268  1
  O  O4732  1  0.67340939  0.61720923  0.84002801  1
  O  O4733  1  0.68990450  0.61269049  0.94370229  1
  Cu  Cu4734  1  0.68084353  0.58632844  0.81785595  1
  H  H4735  1  0.70451560  0.58261227  0.87126860  1
  O  O4736  1  0.71073033  0.60553471  0.79422777  1
  O  O4737  1  0.75032049  0.61621597  0.82208538  1
  Cu  Cu4738  1  0.71019703  0.59262130  0.97813584  1
  C  C4739  1  0.69004385  0.63369667  0.85607010  1
  C  C4740  1  0.72140565  0.59725426  0.87889130  1
  C  C4741  1  0.71588001  0.62560896  0.87350558  1
  C  C4742  1  0.73821619  0.60592440  0.79823319  1
  C  C4743  1  0.74562004  0.58949739  0.89692659  1
  H  H4744  1  0.79260436  0.58087475  0.80437962  1
  C  C4745  1  0.76718946  0.60828692  0.90819400  1
  C  C4746  1  0.79907901  0.55306019  0.97789321  1
  C  C4747  1  0.76145261  0.63646154  0.90206895  1
  H  H4748  1  0.78020250  0.53886891  0.98490456  1
  C  C4749  1  0.73613720  0.64515475  0.88613331  1
  Cu  Cu4750  1  0.76723469  0.65290153  0.82243497  1
  C  C4751  1  0.78340721  0.58058843  0.78028268  1
  O  O4752  1  0.72940570  0.54141521  0.89516156  1
  C  C4753  1  0.75622114  0.59254549  0.77330145  1
  O  O4754  1  0.79851107  0.65084475  0.79136656  1
  C  C4755  1  0.74716765  0.55855599  0.90489575  1
  H  H4756  1  0.78576200  0.60069601  0.92205227  1
  O  O4757  1  0.76844201  0.55180199  0.92231435  1
  C  C4758  1  0.82058449  0.59942340  0.98150662  1
  C  C4759  1  0.79585712  0.65177967  0.76242608  1
  O  O4760  1  0.80665137  0.64943246  0.92496608  1
  C  C4761  1  0.79777218  0.58113437  0.98694358  1
  H  H4762  1  0.81931997  0.62053073  0.99107485  1
  C  C4763  1  0.82693008  0.55516284  0.75924811  1
  C  C4764  1  0.82268801  0.54483804  0.95853140  1
  C  C4765  1  0.82773373  0.51535036  0.94857965  1
  O  O4766  1  0.67661533  0.56972528  0.99808543  1
  O  O4767  1  0.74379319  0.57878896  0.99902578  1
  C  C4768  1  0.78324076  0.65804582  0.91456476  1
  O  O4769  1  0.68448542  0.65951653  0.85609192  1
  C  C4770  1  0.79714531  0.56889454  0.75427017  1
  H  H4771  1  0.83369522  0.50034817  0.84167114  1
  C  C4772  1  0.97481764  0.50167271  0.96765102  1
  O  O4773  1  0.84764584  0.50868915  0.93145021  1
  O  O4774  1  0.91759790  0.51329504  0.83536602  1
  O  O4775  1  0.83959877  0.55683913  0.78772363  1
  C  C4776  1  0.98977110  0.60066332  0.92310923  1
  C  C4777  1  0.97998609  0.57450209  0.93919900  1
  C  C4778  1  0.84566797  0.56355786  0.95089350  1
  H  H4779  1  0.84147868  0.61892848  0.78023211  1
  C  C4780  1  0.84550858  0.58980343  0.96455077  1
  O  O4781  1  0.87155876  0.52052772  0.81743534  1
  O  O4782  1  0.95362094  0.56747433  0.93951823  1
  H  H4783  1  0.94527319  0.61189426  0.91052046  1
  Cu  Cu4784  1  0.87846335  0.55044335  0.79443382  1
  H  H4785  1  0.86312190  0.55646820  0.93505806  1
  Cu  Cu4786  1  0.92365356  0.63970744  0.84333191  1
  Cu  Cu4787  1  0.92423393  0.57433627  0.97200765  1
  O  O4788  1  0.89823165  0.59756603  0.95060339  1
  C  C4789  1  0.96902519  0.61834643  0.90921810  1
  O  O4790  1  0.88789996  0.62287717  0.83147182  1
  O  O4791  1  0.85195272  0.62810789  0.86604118  1
  C  C4792  1  0.86476483  0.63545003  0.84320098  1
  C  C4793  1  0.97869504  0.64503513  0.90125651  1
  H  H4794  1  0.98012958  0.52286201  0.96046214  1
  O  O4795  1  0.93037689  0.65511911  0.88350739  1
  C  C4796  1  0.87242373  0.60741883  0.96237431  1
  O  O4797  1  0.88823488  0.58534545  0.77696790  1
  O  O4798  1  0.87068373  0.62906428  0.97559033  1
  O  O4799  1  0.95922271  0.64272879  0.81858716  1
  C  C4800  1  0.96143446  0.64911399  0.78776264  1
  O  O4801  1  0.95066272  0.63272599  0.76989437  1
  O  O4802  1  0.94256232  0.54565447  0.99356634  1
  C  C4803  1  0.93291094  0.52136068  0.99908165  1
  C  C4804  1  0.89111579  0.50888439  0.83662165  1
  C  C4805  1  0.83905472  0.62179646  0.75448694  1
  H  H4806  1  0.89076896  0.65636106  0.79345012  1
  C  C4807  1  0.85649538  0.66235004  0.82674775  1
  C  C4808  1  0.95538848  0.66482232  0.89162844  1
  C  C4809  1  0.50494891  0.80722356  0.99789565  1
  H  H4810  1  0.61795118  0.70201269  0.75293969  1
  O  O4811  1  0.66673215  0.68917825  0.77688180  1
  Cu  Cu4812  1  0.67386113  0.67618681  0.81818319  1
  H  H4813  1  0.73379509  0.66779967  0.88132121  1
  O  O4814  1  0.74355423  0.67739745  0.80040222  1
  O  O4815  1  0.69971369  0.80194957  0.81515186  1
  O  O4816  1  0.77663645  0.68352794  0.91154983  1
  Cu  Cu4817  1  0.80162945  0.71699994  0.90634774  1
  H  H4818  1  0.70705496  0.74983749  0.81940787  1
  C  C4819  1  0.72768123  0.75060074  0.80641899  1
  C  C4820  1  0.73088284  0.69977239  0.80846478  1
  C  C4821  1  0.74336546  0.72665393  0.79759568  1
  O  O4822  1  0.70737946  0.70104010  0.82413944  1
  C  C4823  1  0.72107942  0.80252031  0.79933028  1
  C  C4824  1  0.73677990  0.77533984  0.79235926  1
  Cu  Cu4825  1  0.78915579  0.78190859  0.84857129  1
  O  O4826  1  0.76063434  0.73439435  0.96047461  1
  C  C4827  1  0.78176739  0.71978113  0.96784361  1
  O  O4828  1  0.80558992  0.71671086  0.95195626  1
  O  O4829  1  0.80324749  0.74885467  0.82857956  1
  C  C4830  1  0.80638603  0.72413887  0.84071308  1
  O  O4831  1  0.79234088  0.71613251  0.86433366  1
  C  C4832  1  0.76142565  0.77682732  0.77164021  1
  O  O4833  1  0.77426255  0.81648919  0.86093102  1
  O  O4834  1  0.73068154  0.82384814  0.78276094  1
  H  H4835  1  0.73523988  0.69302367  0.98072947  1
  C  C4836  1  0.76919119  0.72697556  0.77888136  1
  H  H4837  1  0.77854342  0.70679427  0.77248227  1
  C  C4838  1  0.77646506  0.75267973  0.76667194  1
  H  H4839  1  0.82159081  0.67110741  0.85998745  1
  H  H4840  1  0.76751071  0.79679104  0.76106605  1
  O  O4841  1  0.72398166  0.82515016  0.93701600  1
  C  C4842  1  0.78042248  0.70152778  0.99799448  1
  C  C4843  1  0.75170060  0.69071432  0.99956266  1
  O  O4844  1  0.82282509  0.78475835  0.87413546  1
  C  C4845  1  0.82657779  0.77270103  0.90063032  1
  O  O4846  1  0.82971830  0.74639168  0.90290566  1
  C  C4847  1  0.82757458  0.70469617  0.82735453  1
  H  H4848  1  0.82809153  0.82841061  0.90355752  1
  C  C4849  1  0.67177662  0.67674452  0.75119951  1
  O  O4850  1  0.99546588  0.71308084  0.93711570  1
  C  C4851  1  0.83380500  0.78932375  0.92777449  1
  C  C4852  1  0.83359726  0.81830934  0.92616669  1
  H  H4853  1  0.98857946  0.68164208  0.82624925  1
  O  O4854  1  0.99324980  0.75324465  0.91154042  1
  C  C4855  1  0.83407814  0.67895815  0.83998404  1
  H  H4856  1  0.83545698  0.73310758  0.78819520  1
  C  C4857  1  0.98309620  0.75396406  0.99094796  1
  C  C4858  1  0.98479240  0.69343759  0.80352081  1
  C  C4859  1  0.87225409  0.67105313  0.80113399  1
  H  H4860  1  0.84014170  0.75177162  0.95889632  1
  C  C4861  1  0.84224665  0.71323087  0.79948952  1
  C  C4862  1  0.84066339  0.77504057  0.95614511  1
  C  C4863  1  0.96976152  0.67897821  0.77921877  1
  C  C4864  1  0.85035947  0.79233362  0.97950503  1
  O  O4865  1  0.95778708  0.69077929  0.89114333  1
  C  C4866  1  0.86538774  0.69748876  0.78786311  1
  Cu  Cu4867  1  0.95378907  0.70926942  0.92835885  1
  O  O4868  1  0.94507006  0.72574548  0.96772059  1
  C  C4869  1  0.95277380  0.75077669  0.97702871  1
  O  O4870  1  0.93883657  0.77022327  0.96841691  1
  C  C4871  1  0.85109661  0.82128230  0.97912285  1
  H  H4872  1  0.98166077  0.79967718  0.98386680  1
  C  C4873  1  0.88461906  0.70484756  0.76053310  1
  C  C4874  1  0.99053398  0.73346140  0.76796022  1
  C  C4875  1  0.99551332  0.78068317  0.98969065  1
  C  C4876  1  0.99608968  0.71964767  0.79645570  1
  O  O4877  1  0.92068971  0.83205045  0.84546181  1
  H  H4878  1  0.85738057  0.83321204  0.99989806  1
  O  O4879  1  0.90447166  0.68995444  0.75133076  1
  C  C4880  1  0.59830375  0.99446005  0.92601294  1
  H  H4881  1  0.61410671  0.99042116  0.76690887  1
  O  O4882  1  0.50156909  0.84881219  0.77228805  1
  H  H4883  1  0.65649090  0.83923827  0.98655174  1
  Cu  Cu4884  1  0.50026028  0.93062991  0.89423741  1
  C  C4885  1  0.59320894  0.98553391  0.81590287  1
  O  O4886  1  0.53421601  0.90661781  0.82907488  1
  C  C4887  1  0.57606654  0.97003815  0.83657687  1
  C  C4888  1  0.60283899  0.86367106  0.97308098  1
  C  C4889  1  0.63183963  0.86451423  0.95433331  1
  O  O4890  1  0.57678227  0.86666569  0.96015326  1
  Cu  Cu4891  1  0.54335862  0.88642521  0.97649421  1
  C  C4892  1  0.54209628  0.93853358  0.94321002  1
  O  O4893  1  0.53480458  0.93733016  0.86756717  1
  H  H4894  1  0.61179023  0.89055188  0.92019627  1
  C  C4895  1  0.63165357  0.87875683  0.92573805  1
  C  C4896  1  0.55563106  0.96527055  0.93290251  1
  C  C4897  1  0.58721740  0.96855749  0.93471534  1
  O  O4898  1  0.55701135  0.92128145  0.95841200  1
  H  H4899  1  0.60198769  0.95244272  0.94518625  1
  C  C4900  1  0.56266137  0.94718256  0.82238320  1
  C  C4901  1  0.54385529  0.92841084  0.84124094  1
  C  C4902  1  0.56645144  0.94006790  0.79005230  1
  O  O4903  1  0.64759726  0.98045090  0.93184623  1
  O  O4904  1  0.63970307  0.91592820  0.87742613  1
  Cu  Cu4905  1  0.64295669  0.95005001  0.90081143  1
  H  H4906  1  0.55492824  0.92178343  0.77955650  1
  C  C4907  1  0.58474279  0.95541797  0.77246983  1
  C  C4908  1  0.59951939  0.97848066  0.78390550  1
  O  O4909  1  0.51732819  0.89171757  0.76460188  1
  C  C4910  1  0.65645038  0.87824222  0.90700102  1
  O  O4911  1  0.51602251  0.93342189  0.93483973  1
  H  H4912  1  0.51506903  0.98229253  0.91616104  1
  C  C4913  1  0.53889994  0.98599343  0.91910182  1
  H  H4914  1  0.57502659  0.97505715  0.86162179  1
  C  C4915  1  0.65700762  0.85055732  0.96436371  1
  C  C4916  1  0.66024074  0.89787090  0.88089771  1
  C  C4917  1  0.51679699  0.86493495  0.75868475  1
  O  O4918  1  0.51433047  0.86271198  0.99731289  1
  Cu  Cu4919  1  0.50118846  0.90893109  0.79967904  1
  O  O4920  1  0.71625775  0.83665006  0.98578827  1
  O  O4921  1  0.67494831  0.95707915  0.82860625  1
  Cu  Cu4922  1  0.76458368  0.99948651  0.85060230  1
  O  O4923  1  0.68292781  0.89623623  0.86377821  1
  C  C4924  1  0.70981421  0.83704329  0.95645485  1
  C  C4925  1  0.77264230  0.84038125  0.84778283  1
  C  C4926  1  0.67802494  0.97317017  0.85126514  1
  O  O4927  1  0.67601261  0.96498626  0.87989057  1
  C  C4928  1  0.68175823  0.85090358  0.94466267  1
  O  O4929  1  0.77490694  0.84318095  0.81863883  1
  Cu  Cu4930  1  0.68756028  0.91745946  0.82574282  1
  C  C4931  1  0.68152330  0.86248086  0.91511685  1
  Cu  Cu4932  1  0.74580448  0.85845821  0.79255704  1
  H  H4933  1  0.70129820  0.86324674  0.89994103  1
  H  H4934  1  0.77486335  0.84396766  0.91408347  1
  H  H4935  1  0.81123080  0.96462532  0.86967116  1
  O  O4936  1  0.75740824  0.96550295  0.87019740  1
  O  O4937  1  0.75721685  0.93896818  0.82860935  1
  C  C4938  1  0.75840193  0.94113875  0.85630351  1
  C  C4939  1  0.76172822  0.91230790  0.87190193  1
  H  H4940  1  0.75830357  0.92936536  0.91849932  1
  O  O4941  1  0.76857946  0.86610640  0.96905515  1
  C  C4942  1  0.77009645  0.86435419  0.86827037  1
  C  C4943  1  0.77110913  0.86326171  0.90082067  1
  O  O4944  1  0.76361618  0.91182666  0.96847645  1
  C  C4945  1  0.76731747  0.88883152  0.95442979  1
  C  C4946  1  0.76707981  0.88602298  0.91994468  1
  C  C4947  1  0.76190092  0.91156754  0.90435878  1
  C  C4948  1  0.76514189  0.88958485  0.85227186  1
  H  H4949  1  0.76790821  0.89217403  0.82619092  1
  O  O4950  1  0.70672614  0.91975874  0.78706022  1
  O  O4951  1  0.71604969  0.87678794  0.76996183  1
  C  C4952  1  0.71423762  0.90341792  0.76561232  1
  O  O4953  1  0.79557033  0.95696301  0.97535490  1
  C  C4954  1  0.81971067  0.96923053  0.97272204  1
  O  O4955  1  0.83310280  0.91556514  0.85576624  1
  C  C4956  1  0.82166688  0.99998947  0.97749305  1
  H  H4957  1  0.72846052  0.95639691  0.75476239  1
  C  C4958  1  0.83213430  0.97117306  0.87924503  1
  O  O4959  1  0.95121637  0.99068438  0.81307169  1
  C  C4960  1  0.91750715  0.99517731  0.91551452  1
  O  O4961  1  0.87806780  0.94600133  0.79511336  1
  C  C4962  1  0.93917469  0.90728809  0.76399985  1
  Cu  Cu4963  1  0.86227282  0.86597210  0.88602317  1
  O  O4964  1  0.88128794  0.85934320  0.84754107  1
  C  C4965  1  0.85385107  0.92299884  0.87109555  1
  C  C4966  1  0.84302782  0.83508022  0.95113224  1
  O  O4967  1  0.83875081  0.87459053  0.92161045  1
  C  C4968  1  0.89598511  0.94063808  0.77614164  1
  C  C4969  1  0.83861258  0.99862785  0.88783589  1
  O  O4970  1  0.84349764  0.95589241  0.96837698  1
  C  C4971  1  0.95459820  0.88271317  0.77039706  1
  C  C4972  1  0.88685352  0.98611117  0.90374595  1
  C  C4973  1  0.88274844  0.95773392  0.89897789  1
  O  O4974  1  0.87419952  0.90547608  0.88052485  1
  H  H4975  1  0.86958952  0.99934339  0.97357227  1
  C  C4976  1  0.91432376  0.91395767  0.78181907  1
  O  O4977  1  0.85447831  0.88057386  0.96999383  1
  H  H4978  1  0.96015045  0.84596592  0.80096349  1
  C  C4979  1  0.84540111  0.86539964  0.94825629  1
  H  H4980  1  0.90023254  0.94215388  0.90005997  1
  C  C4981  1  0.91857831  0.86973677  0.81025339  1
  O  O4982  1  0.93612157  0.97921636  0.92186605  1
  C  C4983  1  0.90364271  0.89496030  0.80350534  1
  C  C4984  1  0.94495316  0.86426755  0.79467366  1
  Cu  Cu4985  1  0.84840789  0.91839087  0.97072234  1
  C  C4986  1  0.90736283  0.85084245  0.83568848  1
  C  C4987  1  0.85502615  0.95211990  0.88451132  1
  H  H4988  1  0.88433963  0.89967638  0.81801495  1
  C  C4989  1  0.98130185  0.87410801  0.75243443  1
  O  O4990  1  0.90142290  0.95644781  0.75133546  1
  O  O4991  1  0.99689879  0.85551633  0.76042037  1
