# generated using pymatgen
data_ZnH21C27N7
_symmetry_space_group_name_H-M   'P 1'
_cell_length_a   30.00065056
_cell_length_b   25.03546777
_cell_length_c   12.27546994
_cell_angle_alpha   90.00000000
_cell_angle_beta   90.00000000
_cell_angle_gamma   90.00000000
_symmetry_Int_Tables_number   1
_chemical_formula_structural   ZnH21C27N7
_chemical_formula_sum   'Zn16 H336 C432 N112'
_cell_volume   9219.86389583
_cell_formula_units_Z   16
loop_
 _symmetry_equiv_pos_site_id
 _symmetry_equiv_pos_as_xyz
  1  'x, y, z'
loop_
 _atom_site_type_symbol
 _atom_site_label
 _atom_site_symmetry_multiplicity
 _atom_site_fract_x
 _atom_site_fract_y
 _atom_site_fract_z
 _atom_site_occupancy
  C  C0  1  0.17342237  0.12078616  0.25414743  1
  H  H1  1  0.18240469  0.07848788  0.27293339  1
  C  C2  1  0.04274138  0.47397031  0.23980619  1
  H  H3  1  0.17503130  0.05973392  0.05311643  1
  C  C4  1  0.20549363  0.03690726  0.05123876  1
  C  C5  1  0.10344020  0.13909668  0.37368292  1
  H  H6  1  0.12401779  0.23544556  0.28504681  1
  N  N7  1  0.10075649  0.42401884  0.20304493  1
  C  C8  1  0.05693789  0.31513563  0.26321151  1
  C  C9  1  0.14595834  0.20252340  0.26203524  1
  N  N10  1  0.02376035  0.27340035  0.26227668  1
  C  C11  1  0.07475312  0.18305960  0.39881917  1
  C  C12  1  0.05631142  0.42652601  0.18821131  1
  C  C13  1  0.07450975  0.26043991  0.13321163  1
  H  H14  1  0.23175825  0.31645821  0.21366645  1
  N  N15  1  0.19014625  0.34880827  0.08187879  1
  H  H16  1  0.09149514  0.24781287  0.05587734  1
  C  C17  1  0.22534041  0.33073800  0.12969468  1
  N  N18  1  0.07943329  0.49931723  0.28028736  1
  N  N19  1  0.08654287  0.30606400  0.19027194  1
  H  H20  1  0.21822661  0.27045460  0.38767435  1
  H  H21  1  0.05907634  0.35194171  0.30935239  1
  H  H22  1  0.01677664  0.20534349  0.17496066  1
  C  C23  1  0.03519037  0.23973002  0.18365092  1
  H  H24  1  0.03407701  0.39504928  0.15012529  1
  Zn  Zn25  1  0.13395722  0.36094971  0.15801000  1
  H  H26  1  0.14988155  0.46970580  0.29116932  1
  C  C27  1  0.18161481  0.20228094  0.18662812  1
  H  H28  1  0.11747829  0.05481864  0.38975424  1
  N  N29  1  0.19769107  0.15211539  0.18963960  1
  H  H30  1  0.19883675  0.23427595  0.14119271  1
  N  N31  1  0.13902379  0.15205708  0.30062616  1
  H  H32  1  0.17839786  0.49807114  0.11729021  1
  H  H33  1  0.07705824  0.22216356  0.35187389  1
  C  C34  1  0.09914684  0.08814471  0.42489800  1
  C  C35  1  0.11613319  0.46500912  0.25780948  1
  N  N36  1  0.24508098  0.05344144  0.07955136  1
  H  H37  1  0.12657630  0.01797974  0.03378330  1
  H  H38  1  0.22905856  0.44375050  0.16411849  1
  H  H39  1  0.00996343  0.49244863  0.25185740  1
  H  H40  1  0.00381837  0.06238093  0.45965734  1
  C  C41  1  0.23626313  0.30196910  0.42779332  1
  C  C42  1  0.05069342  0.17636749  0.49308229  1
  H  H43  1  0.01309155  0.34514703  0.41413389  1
  C  C44  1  0.15577528  0.20614340  0.56431885  1
  H  H45  1  0.10517396  0.45498086  0.50761654  1
  C  C46  1  0.16445094  0.15109879  0.55985904  1
  H  H47  1  0.03210320  0.21428706  0.51979254  1
  C  C48  1  0.04775413  0.12773317  0.55100565  1
  H  H49  1  0.23389094  0.38309156  0.65385688  1
  H  H50  1  0.17194948  0.08272570  0.75323194  1
  C  C51  1  0.03858210  0.20757002  0.72273905  1
  N  N52  1  0.18932204  0.29396158  0.58046538  1
  Zn  Zn53  1  0.06786564  0.07662362  0.80048423  1
  H  H54  1  0.24171331  0.08648959  0.77532471  1
  C  C55  1  0.15692799  0.11427543  0.80708220  1
  H  H56  1  0.01449518  0.17690387  0.90261225  1
  N  N57  1  0.01994701  0.08915389  0.90749712  1
  N  N58  1  0.18394208  0.15334400  0.85332648  1
  H  H59  1  0.17440866  0.40142580  0.60296838  1
  H  H60  1  0.10306612  0.27611974  0.88140085  1
  H  H61  1  0.13820595  0.12262893  0.54529219  1
  C  C62  1  0.19442771  0.23881776  0.57189872  1
  C  C63  1  0.10970545  0.48747662  0.56285648  1
  C  C64  1  0.02871077  0.26037547  0.73940756  1
  H  H65  1  0.07243270  0.19199378  0.72347001  1
  H  H66  1  0.17176937  0.21916563  0.96402543  1
  H  H67  1  0.04187865  0.30627284  0.94934075  1
  C  C68  1  0.17912040  0.03910303  0.59928092  1
  H  H69  1  0.05640699  0.28749833  0.75743500  1
  C  C70  1  0.00713229  0.38470666  0.97554040  1
  C  C71  1  0.23162278  0.16341260  0.83763041  1
  N  N72  1  0.06987154  0.37660362  0.87818735  1
  H  H73  1  0.17123114  0.37718434  0.91339790  1
  N  N74  1  0.11497093  0.12203220  0.83866704  1
  Zn  Zn75  1  0.01642399  0.48786317  0.65044377  1
  H  H76  1  0.15605226  0.24130053  0.74576739  1
  H  H77  1  0.12178661  0.22276136  0.55180835  1
  H  H78  1  0.03829119  0.37286891  0.72550839  1
  H  H79  1  0.11536503  0.43639159  0.72494594  1
  C  C80  1  0.10596161  0.35978468  0.80981532  1
  C  C81  1  0.11798819  0.30443955  0.82190544  1
  N  N82  1  0.01764077  0.43428427  0.93247919  1
  C  C83  1  0.05458884  0.43022096  0.87750988  1
  H  H84  1  0.14395351  0.04853448  0.57944184  1
  C  C85  1  0.14701886  0.28425667  0.74459136  1
  C  C86  1  0.16509048  0.31948587  0.66102909  1
  H  H87  1  0.07381698  0.46280287  0.83623431  1
  C  C88  1  0.15511069  0.37617672  0.65717898  1
  H  H89  1  0.08658216  0.17613248  0.96135242  1
  C  C90  1  0.12621468  0.39543788  0.73487410  1
  C  C91  1  0.04015668  0.34930234  0.94308760  1
  H  H92  1  0.07208454  0.04429022  0.56555521  1
  C  C93  1  0.11504871  0.16391644  0.91315029  1
  N  N94  1  0.01465447  0.12384024  0.63322236  1
  C  C95  1  0.00329349  0.17080567  0.69459807  1
  N  N96  1  0.08031980  0.00465317  0.74830276  1
  N  N97  1  0.21401470  0.07324596  0.57938123  1
  C  C98  1  0.20857532  0.12970173  0.56332476  1
  C  C99  1  0.15814108  0.18476338  0.91896306  1
  C  C100  1  0.19715181  0.36025409  0.97317098  1
  C  C101  1  0.24047910  0.34498841  0.94959561  1
  C  C102  1  0.00133680  0.37586534  0.70019105  1
  C  C103  1  0.07402744  0.08198244  0.52060018  1
  C  C104  1  0.22212967  0.32561078  0.52437497  1
  H  H105  1  0.22981981  0.24948735  0.88563571  1
  C  C106  1  0.00451456  0.13734044  0.93299926  1
  C  C107  1  0.24420934  0.37072035  0.57609852  1
  C  C108  1  0.23967290  0.21910598  0.56024156  1
  C  C109  1  0.24803078  0.16500357  0.55968341  1
  C  C110  1  0.02899027  0.65681381  0.17638942  1
  C  C111  1  0.07382615  0.64899629  0.15075821  1
  C  C112  1  0.17045755  0.63809175  0.10903308  1
  N  N113  1  0.14891293  0.68704806  0.11865689  1
  C  C114  1  0.08002250  0.55116441  0.32690635  1
  C  C115  1  0.12014956  0.62956157  0.36892229  1
  C  C116  1  0.10379539  0.69331942  0.14653219  1
  H  H117  1  0.15675231  0.75555813  0.28412866  1
  C  C118  1  0.02748111  0.92216258  0.14751417  1
  C  C119  1  0.17200773  0.94421576  0.02988826  1
  C  C120  1  0.18866529  0.54205431  0.11972274  1
  C  C121  1  0.15793512  0.81633338  0.45359781  1
  H  H122  1  0.15227209  0.56469343  0.28554119  1
  C  C123  1  0.23821692  0.77800888  0.03192373  1
  C  C124  1  0.12193189  0.57855894  0.32639083  1
  H  H125  1  0.00606501  0.54466533  0.38234955  1
  H  H126  1  0.22022928  0.81926210  0.30666427  1
  C  C127  1  0.17329962  0.88744998  0.03920675  1
  H  H128  1  0.02990042  0.79471898  0.19235742  1
  C  C129  1  0.16519826  0.70030683  0.49402439  1
  H  H130  1  0.10760634  0.78103728  0.13409460  1
  H  H131  1  0.09016262  0.80527770  0.44248270  1
  C  C132  1  0.15759602  0.58244737  0.10519141  1
  H  H133  1  0.15056486  0.65338291  0.35548468  1
  C  C134  1  0.20005596  0.74581188  0.02180822  1
  H  H135  1  0.22994715  0.69089706  0.12564529  1
  H  H136  1  0.05854958  0.92084772  0.18761778  1
  H  H137  1  0.12135186  0.56839202  0.10048820  1
  C  C138  1  0.04078427  0.75428277  0.17957307  1
  C  C139  1  0.08467002  0.74730455  0.15142603  1
  C  C140  1  0.03723281  0.62165410  0.40635783  1
  C  C141  1  0.07939865  0.64979643  0.41574418  1
  C  C142  1  0.21418353  0.79890284  0.22618696  1
  H  H143  1  0.15504395  0.85985200  0.45610247  1
  H  H144  1  0.08693421  0.60968334  0.13144377  1
  N  N145  1  0.20828607  0.97984812  0.04481290  1
  C  C146  1  0.17875789  0.76391700  0.21497374  1
  C  C147  1  0.17307591  0.73540510  0.11399246  1
  C  C148  1  0.23351758  0.55536005  0.14009597  1
  C  C149  1  0.03823679  0.56948812  0.36866403  1
  C  C150  1  0.01244524  0.70853000  0.19958987  1
  C  C151  1  0.24271398  0.80695216  0.13149411  1
  H  H152  1  0.00760936  0.63986112  0.44151841  1
  C  C153  1  0.21701212  0.64883918  0.12826376  1
  C  C154  1  0.09471960  0.88485792  0.00393457  1
  C  C155  1  0.19998953  0.79061256  0.47564517  1
  H  H156  1  0.13585814  0.81201331  0.02745556  1
  H  H157  1  0.20359389  0.86617983  0.05792694  1
  C  C158  1  0.01653161  0.89228565  0.04758179  1
  C  C159  1  0.12100435  0.78320510  0.45964955  1
  C  C160  1  0.12250290  0.72697929  0.47786605  1
  N  N161  1  0.08270343  0.69747173  0.47118687  1
  C  C162  1  0.20231830  0.73278864  0.48462049  1
  H  H163  1  0.00142434  0.97713521  0.26379192  1
  C  C164  1  0.13593177  0.85628392  0.02015485  1
  C  C165  1  0.13051370  0.97325223  0.02030595  1
  H  H166  1  0.00833892  0.62282523  0.18014954  1
  C  C167  1  0.24901065  0.60964956  0.14062399  1
  H  H168  1  0.23530869  0.71385924  0.49432135  1
  C  C169  1  0.00614567  0.73930203  0.46799868  1
  C  C170  1  0.09302971  0.94152632  0.00466922  1
  C  C171  1  0.20192508  0.70100560  0.71771671  1
  C  C172  1  0.15427887  0.69629752  0.73802397  1
  C  C173  1  0.13594006  0.64657271  0.71628407  1
  H  H174  1  0.19128853  0.72675188  0.94474801  1
  N  N175  1  0.13914137  0.55700234  0.65219280  1
  C  C176  1  0.16323942  0.60419506  0.68043638  1
  H  H177  1  0.09975697  0.64228572  0.72275387  1
  H  H178  1  0.07658210  0.58023241  0.73672326  1
  H  H179  1  0.13693813  0.73369974  0.76393307  1
  N  N180  1  0.02494270  0.56475857  0.93775986  1
  C  C181  1  0.09326927  0.55128651  0.68013034  1
  H  H182  1  0.02837380  0.79454135  0.76307869  1
  C  C183  1  0.02390052  0.78086333  0.67564349  1
  C  C184  1  0.14828069  0.52025512  0.57497579  1
  N  N185  1  0.22305786  0.74775556  0.75564525  1
  H  H186  1  0.11554762  0.63442907  0.91866328  1
  C  C187  1  0.21032362  0.60637707  0.67020635  1
  H  H188  1  0.01664977  0.88376546  0.72382778  1
  H  H189  1  0.03002933  0.60935017  0.59233445  1
  C  C190  1  0.04804141  0.81469593  0.94819484  1
  C  C191  1  0.23858336  0.86787756  0.58125494  1
  C  C192  1  0.08358535  0.73270407  0.89368062  1
  H  H193  1  0.11278570  0.70889376  0.87534182  1
  H  H194  1  0.20912684  0.88449889  0.61672415  1
  C  C195  1  0.04352784  0.70537455  0.91853639  1
  N  N196  1  0.07904719  0.50812091  0.63418212  1
  C  C197  1  0.06999047  0.56175500  0.93363608  1
  C  C198  1  0.16286393  0.79558024  0.67586332  1
  H  H199  1  0.10833902  0.84092489  0.61405007  1
  H  H200  1  0.23853712  0.84119592  0.87397694  1
  C  C201  1  0.21028653  0.84207176  0.81603658  1
  H  H202  1  0.15950162  0.76113910  0.61764923  1
  C  C203  1  0.19942506  0.79572043  0.75043891  1
  H  H204  1  0.06526044  0.89342313  0.61789323  1
  N  N205  1  0.11502202  0.92810338  0.72778498  1
  C  C206  1  0.13599684  0.84037238  0.66817405  1
  C  C207  1  0.08256349  0.61489435  0.91877226  1
  C  C208  1  0.18320329  0.88608351  0.81098800  1
  H  H209  1  0.18917968  0.92180213  0.85905777  1
  C  C210  1  0.05451466  0.74586395  0.62714567  1
  N  N211  1  0.04643504  0.64826176  0.92618837  1
  H  H212  1  0.14055809  0.98980746  0.84015138  1
  C  C213  1  0.07552499  0.92670000  0.66915069  1
  C  C214  1  0.05380228  0.97478747  0.68107010  1
  H  H215  1  0.11486791  0.81239110  0.87058488  1
  C  C216  1  0.08575753  0.78949788  0.89571246  1
  H  H217  1  0.08307143  0.73181854  0.66771439  1
  C  C218  1  0.14608965  0.88463288  0.73739007  1
  C  C219  1  0.22909732  0.65659572  0.68781289  1
  H  H220  1  0.18324736  0.95059257  0.65253641  1
  H  H221  1  0.23055460  0.57068316  0.65553871  1
  C  C222  1  0.11511693  0.97742598  0.78285143  1
  C  C223  1  0.00566137  0.73230579  0.96346245  1
  H  H224  1  0.09292883  0.52778435  0.93343536  1
  C  C225  1  0.00572692  0.78673549  0.96832469  1
  C  C226  1  0.00928878  0.61503058  0.93524148  1
  C  C227  1  0.19823103  0.99075401  0.63331320  1
  H  H228  1  0.17985224  0.52496292  0.52869481  1
  H  H229  1  0.01913550  0.98924226  0.65970326  1
  N  N230  1  0.24320227  0.99730197  0.63623693  1
  H  H231  1  0.05935385  0.95889688  0.99090426  1
  C  C232  1  0.04581969  0.72584202  0.52015893  1
  H  H233  1  0.24177960  0.66788479  0.89247097  1
  H  H234  1  0.16823849  0.65858116  0.51848685  1
  N  N235  1  0.05204495  0.86452167  0.99655512  1
  N  N236  1  0.23711042  0.82477569  0.50612272  1
  C  C237  1  0.43848593  0.10782708  0.09778519  1
  C  C238  1  0.39974487  0.13325114  0.04890331  1
  H  H239  1  0.31068857  0.01843987  0.09362215  1
  C  C240  1  0.34146993  0.15123445  0.24461037  1
  C  C241  1  0.40327553  0.18585024  0.01466979  1
  C  C242  1  0.30390316  0.31327118  0.05497955  1
  N  N243  1  0.35040808  0.36221575  0.42540347  1
  H  H244  1  0.31231859  0.39340385  0.18197900  1
  H  H245  1  0.36331579  0.12378895  0.19879170  1
  H  H246  1  0.48357691  0.25650021  0.48380609  1
  N  N247  1  0.29919345  0.16209767  0.23818210  1
  H  H248  1  0.30059402  0.24453935  0.16627878  1
  C  C249  1  0.42285173  0.12868138  0.37510840  1
  C  C250  1  0.40141552  0.18058380  0.38144870  1
  N  N251  1  0.35732519  0.17866779  0.33629828  1
  C  C252  1  0.39582362  0.29372454  0.04709498  1
  N  N253  1  0.25801809  0.32785452  0.04822602  1
  H  H254  1  0.40207351  0.26591965  0.43955987  1
  N  N255  1  0.45839367  0.44257402  0.21725605  1
  C  C256  1  0.32451662  0.20871262  0.38598562  1
  C  C257  1  0.26081878  0.46038879  0.16074608  1
  C  C258  1  0.27700723  0.31998479  0.38320442  1
  C  C259  1  0.46816317  0.12518656  0.39267616  1
  C  C260  1  0.27539932  0.01293364  0.07316714  1
  H  H261  1  0.28935077  0.30149539  0.30972076  1
  H  H262  1  0.36228928  0.30441478  0.29091585  1
  C  C263  1  0.41881674  0.34523141  0.38154710  1
  H  H264  1  0.38161192  0.22771367  0.16409234  1
  C  C265  1  0.30328711  0.43680263  0.17043133  1
  C  C266  1  0.46772150  0.02891296  0.18717779  1
  H  H267  1  0.36862665  0.11059967  0.03744723  1
  C  C268  1  0.32266798  0.27134812  0.11986023  1
  C  C269  1  0.28701555  0.19520473  0.32347452  1
  C  C270  1  0.47964056  0.13746148  0.10779471  1
  N  N271  1  0.33270317  0.47732316  0.16784667  1
  H  H272  1  0.43939577  0.35922929  0.18238219  1
  C  C273  1  0.42122207  0.22705495  0.42844182  1
  Zn  Zn274  1  0.39906947  0.47446338  0.17630652  1
  C  C275  1  0.44168405  0.21781114  0.03125631  1
  C  C276  1  0.49489677  0.46717287  0.25631368  1
  H  H277  1  0.44983668  0.33294761  0.34172921  1
  N  N278  1  0.43325479  0.05894135  0.15334089  1
  C  C279  1  0.36792523  0.26234418  0.11910480  1
  H  H280  1  0.40549812  0.09276022  0.35159288  1
  C  C281  1  0.30248293  0.35887745  0.44165246  1
  H  H282  1  0.48138450  0.29031767  0.17688322  1
  H  H283  1  0.36062472  0.04618409  0.16780611  1
  C  C284  1  0.46384437  0.39122496  0.21374776  1
  C  C285  1  0.37482866  0.33412220  0.35107410  1
  C  C286  1  0.46598704  0.22226839  0.45634968  1
  C  C287  1  0.39368020  0.03164343  0.18690266  1
  C  C288  1  0.47947613  0.18994522  0.08022915  1
  N  N289  1  0.42004197  0.37998901  0.46957583  1
  H  H290  1  0.33047982  0.23249008  0.45733114  1
  C  C291  1  0.48868966  0.17391466  0.43637062  1
  Zn  Zn292  1  0.25611500  0.12766954  0.13344876  1
  N  N293  1  0.43784027  0.27323508  0.01816095  1
  H  H294  1  0.49246963  0.20407164  0.26414301  1
  H  H295  1  0.48813476  0.08805000  0.37975718  1
  H  H296  1  0.25035924  0.20622828  0.33930141  1
  C  C297  1  0.47307992  0.35987346  0.00074724  1
  H  H298  1  0.44476710  0.38696279  0.02286757  1
  C  C299  1  0.37938354  0.38948890  0.49826546  1
  H  H300  1  0.47100019  0.43983202  0.76595648  1
  C  C301  1  0.45472956  0.09970330  0.81246409  1
  H  H302  1  0.26071356  0.34260825  0.87645641  1
  Zn  Zn303  1  0.47487599  0.39464052  0.55650247  1
  H  H304  1  0.32637226  0.43762497  0.82041179  1
  H  H305  1  0.28199922  0.14739074  0.56103923  1
  C  C306  1  0.30660503  0.12687570  0.78688025  1
  C  C307  1  0.25040899  0.21426245  0.85929141  1
  N  N308  1  0.39551307  0.42093385  0.78082835  1
  H  H309  1  0.40144841  0.36398549  0.93064214  1
  H  H310  1  0.32695177  0.09126556  0.76509879  1
  H  H311  1  0.36917938  0.40957532  0.57342582  1
  C  C312  1  0.33369692  0.34505428  0.98666329  1
  C  C313  1  0.42444231  0.32584981  0.78598234  1
  C  C314  1  0.43521785  0.45080102  0.78399778  1
  H  H315  1  0.28687680  0.06430361  0.59570113  1
  H  H316  1  0.31271117  0.02149363  0.87504405  1
  C  C317  1  0.48845889  0.12632913  0.75308667  1
  H  H318  1  0.42765540  0.21566345  0.60615070  1
  H  H319  1  0.46314403  0.06309412  0.86185677  1
  C  C320  1  0.41058031  0.11836557  0.80569885  1
  H  H321  1  0.38427330  0.10037843  0.85037381  1
  C  C322  1  0.41604700  0.27092658  0.78854446  1
  H  H323  1  0.30917400  0.25953691  0.86300688  1
  H  H324  1  0.43931911  0.23800154  0.82216479  1
  C  C325  1  0.47827284  0.16516009  0.66865230  1
  H  H326  1  0.45899463  0.33990677  0.80319709  1
  C  C327  1  0.32496434  0.17806746  0.80950084  1
  C  C328  1  0.25339594  0.04593892  0.60665922  1
  C  C329  1  0.37357402  0.25171958  0.75395761  1
  C  C330  1  0.29601096  0.21962577  0.84833922  1
  C  C331  1  0.39143240  0.36455773  0.75935973  1
  C  C332  1  0.25979370  0.12257923  0.79569992  1
  C  C333  1  0.43592615  0.18403044  0.66521679  1
  H  H334  1  0.30084325  0.42593191  0.56135918  1
  C  C335  1  0.40109448  0.16407921  0.73818621  1
  N  N336  1  0.36666280  0.19597402  0.77135345  1
  C  C337  1  0.34253177  0.28937953  0.71079043  1
  H  H338  1  0.47286630  0.26627406  0.64852551  1
  H  H339  1  0.30837376  0.27691211  0.68321431  1
  C  C340  1  0.36007023  0.45160552  0.81343762  1
  H  H341  1  0.32443271  0.37520976  0.69084630  1
  C  C342  1  0.34950142  0.34518297  0.72060240  1
  H  H343  1  0.31954036  0.37801743  0.93635256  1
  C  C344  1  0.37888198  0.33817838  0.98492871  1
  H  H345  1  0.26592724  0.25080054  0.55384810  1
  C  C346  1  0.28266544  0.39045918  0.52807095  1
  N  N347  1  0.42529371  0.49885619  0.81804397  1
  C  C348  1  0.47393178  0.30326078  0.98179981  1
  H  H349  1  0.37497795  0.20652379  0.97557928  1
  N  N350  1  0.41165260  0.55100782  0.17087453  1
  C  C351  1  0.43292135  0.57466175  0.24966943  1
  N  N352  1  0.43954839  0.62964261  0.22377279  1
  H  H353  1  0.48513422  0.80194850  0.26836217  1
  C  C354  1  0.41646249  0.88776929  0.45418050  1
  H  H355  1  0.33142551  0.56025977  0.15653398  1
  H  H356  1  0.28710863  0.77838877  0.43447883  1
  C  C357  1  0.42070956  0.63563397  0.12319011  1
  H  H358  1  0.28362260  0.62404780  0.15230608  1
  H  H359  1  0.25977152  0.92192147  0.07535268  1
  H  H360  1  0.42542346  0.85739307  0.39688724  1
  C  C361  1  0.29028490  0.87607428  0.22011197  1
  C  C362  1  0.49028203  0.75887692  0.28848733  1
  H  H363  1  0.26939244  0.87325311  0.29461907  1
  C  C364  1  0.40346904  0.58656992  0.08822599  1
  H  H365  1  0.44250463  0.55507718  0.32542783  1
  H  H366  1  0.45170112  0.97071291  0.03871443  1
  N  N367  1  0.32852251  0.90015039  0.19604559  1
  H  H368  1  0.42120602  0.67190759  0.07700777  1
  C  C369  1  0.45884481  0.72351524  0.25259886  1
  C  C370  1  0.31339165  0.52380569  0.15573530  1
  H  H371  1  0.43088457  0.73863498  0.20071799  1
  C  C372  1  0.25153964  0.96563303  0.06080480  1
  N  N373  1  0.26715515  0.51489814  0.15079951  1
  C  C374  1  0.46683211  0.66835094  0.27474500  1
  N  N375  1  0.40463758  0.98614828  0.23423642  1
  Zn  Zn376  1  0.36308078  0.93741305  0.29561964  1
  N  N377  1  0.27814702  0.84454449  0.12940831  1
  H  H378  1  0.38983862  0.57552473  0.00816384  1
  C  C379  1  0.34081247  0.89067594  0.09185833  1
  C  C380  1  0.44989597  0.98139960  0.23440835  1
  H  H381  1  0.37049095  0.90549132  0.04538913  1
  H  H382  1  0.46788502  0.95191721  0.28462448  1
  N  N383  1  0.39013948  0.92892753  0.43856595  1
  C  C384  1  0.27890914  0.81215727  0.48163152  1
  C  C385  1  0.30905581  0.85345053  0.05089551  1
  H  H386  1  0.39420533  0.99896384  0.00639096  1
  C  C387  1  0.40486283  0.63879988  0.85992614  1
  N  N388  1  0.39464090  0.69214709  0.87589395  1
  H  H389  1  0.42950326  0.95087969  0.68479201  1
  N  N390  1  0.44825627  0.63347667  0.87211684  1
  C  C391  1  0.26424043  0.73865262  0.80556117  1
  C  C392  1  0.34885816  0.71292033  0.86624658  1
  C  C393  1  0.48107876  0.82903952  0.90460446  1
  C  C394  1  0.31488242  0.67641334  0.89642328  1
  C  C395  1  0.27190878  0.68970658  0.86442660  1
  H  H396  1  0.38304255  0.60232121  0.84042859  1
  H  H397  1  0.47575815  0.51452022  0.60024206  1
  C  C398  1  0.46638047  0.85378080  0.60579909  1
  H  H399  1  0.32032934  0.63853959  0.94265670  1
  H  H400  1  0.48685793  0.60117832  0.64609844  1
  H  H401  1  0.36405555  0.53677023  0.86285342  1
  H  H402  1  0.28995115  0.81589422  0.75197443  1
  H  H403  1  0.25932575  0.78977430  0.96490054  1
  Zn  Zn404  1  0.29265605  0.94812070  0.67525434  1
  C  C405  1  0.46697565  0.80455906  0.55139824  1
  C  C406  1  0.34043484  0.99069055  0.87253238  1
  C  C407  1  0.29836557  0.77795971  0.79478448  1
  C  C408  1  0.46749327  0.67989401  0.90019751  1
  C  C409  1  0.34069260  0.76704111  0.83021570  1
  H  H410  1  0.36986332  0.79216981  0.82006767  1
  N  N411  1  0.43741178  0.89271184  0.55970220  1
  Zn  Zn412  1  0.47097356  0.55362842  0.84607705  1
  N  N413  1  0.33637580  0.95176450  0.79538019  1
  C  C414  1  0.42264271  0.93932982  0.60237695  1
  C  C415  1  0.43298999  0.71797271  0.90300296  1
  C  C416  1  0.36861980  0.91672118  0.80115389  1
  H  H417  1  0.41352809  0.83657989  0.82338822  1
  C  C418  1  0.43484758  0.90542664  0.92026914  1
  C  C419  1  0.44162153  0.85297883  0.87548741  1
  H  H420  1  0.37404548  0.88191470  0.74286543  1
  N  N421  1  0.39516773  0.93325235  0.88858261  1
  N  N422  1  0.28081902  0.87988242  0.59976716  1
  H  H423  1  0.42961860  0.76201859  0.92919593  1
  C  C424  1  0.37886794  0.97980847  0.93313567  1
  H  H425  1  0.49147738  0.79090953  0.86564836  1
  H  H426  1  0.30583665  0.83127734  0.97465416  1
  H  H427  1  0.26587163  0.66107123  0.68339999  1
  H  H428  1  0.37434846  0.99950986  0.53651416  1
  C  C429  1  0.49795264  0.86781537  0.69319836  1
  H  H430  1  0.34352070  0.85369133  0.54517901  1
  C  C431  1  0.30702941  0.84541840  0.54535629  1
  H  H432  1  0.49374474  0.90191541  0.74425918  1
  C  C433  1  0.39241030  0.96174086  0.52854666  1
  C  C434  1  0.38008664  0.50085380  0.83561821  1
  H  H435  1  0.43972047  0.78953278  0.50215566  1
  C  C436  1  0.46239120  0.93246290  0.99565472  1
  H  H437  1  0.58543212  0.22205949  0.21389129  1
  H  H438  1  0.70178465  0.39002270  0.11273369  1
  C  C439  1  0.62249851  0.22307355  0.19449620  1
  Zn  Zn440  1  0.65952402  0.49747549  0.21698151  1
  H  H441  1  0.51888113  0.41949551  0.05425691  1
  N  N442  1  0.50639778  0.38118641  0.26359569  1
  N  N443  1  0.69242491  0.24212854  0.17195925  1
  N  N444  1  0.64274301  0.01356398  0.49906104  1
  C  C445  1  0.72306462  0.11794281  0.29705300  1
  H  H446  1  0.71093817  0.04117665  0.44004924  1
  H  H447  1  0.57877603  0.40896369  0.48370786  1
  H  H448  1  0.71067148  0.17173720  0.07661173  1
  C  C449  1  0.65559956  0.26030261  0.22023022  1
  C  C450  1  0.63598856  0.35701846  0.04199465  1
  N  N451  1  0.58597212  0.06516889  0.16966251  1
  C  C452  1  0.73600956  0.45799110  0.32764773  1
  H  H453  1  0.69400404  0.10818620  0.23898778  1
  Zn  Zn454  1  0.61127433  0.11897986  0.07357555  1
  C  C455  1  0.61423097  0.15397601  0.46707486  1
  C  C456  1  0.56406450  0.07492208  0.26611671  1
  H  H457  1  0.56128929  0.42696352  0.31289363  1
  H  H458  1  0.65785644  0.29897284  0.26212941  1
  C  C459  1  0.68351058  0.19216779  0.12338857  1
  N  N460  1  0.71114219  0.49952004  0.30687800  1
  C  C461  1  0.58967489  0.01334197  0.15725361  1
  C  C462  1  0.64059743  0.10911670  0.48553481  1
  N  N463  1  0.63954108  0.43240027  0.13669305  1
  H  H464  1  0.70053240  0.18848991  0.39970465  1
  H  H465  1  0.58408980  0.36406239  0.38741900  1
  C  C466  1  0.54412506  0.23432167  0.38740100  1
  C  C467  1  0.73557760  0.26993369  0.18175984  1
  C  C468  1  0.68781607  0.00721482  0.46020988  1
  H  H469  1  0.62790355  0.19197587  0.44998160  1
  C  C470  1  0.72470710  0.15543755  0.37925938  1
  C  C471  1  0.52725950  0.42708357  0.28142330  1
  C  C472  1  0.56986998  0.28039617  0.41874153  1
  H  H473  1  0.56587450  0.44009076  0.13880818  1
  H  H474  1  0.55805059  0.11671175  0.29772241  1
  H  H475  1  0.73417654  0.41712825  0.29143574  1
  C  C476  1  0.51540715  0.23840290  0.29317753  1
  N  N477  1  0.64076893  0.18360747  0.13155214  1
  C  C478  1  0.55205705  0.02566901  0.30939905  1
  N  N479  1  0.74100283  0.02213810  0.07670279  1
  H  H480  1  0.53924103  0.01773289  0.39263266  1
  C  C481  1  0.66501904  0.39224939  0.09549673  1
  C  C482  1  0.56484887  0.32768503  0.36085982  1
  C  C483  1  0.52875166  0.33169311  0.28331807  1
  C  C484  1  0.59656875  0.42114738  0.11519386  1
  N  N485  1  0.53530147  0.18470251  0.44051644  1
  H  H486  1  0.67657751  0.10722334  0.47137449  1
  C  C487  1  0.50608296  0.28569603  0.24051696  1
  H  H488  1  0.51181191  0.11976836  0.13923676  1
  N  N489  1  0.59293103  0.37519089  0.05215392  1
  C  C490  1  0.56626553  0.14779534  0.47193875  1
  H  H491  1  0.59375135  0.27813685  0.48737149  1
  C  C492  1  0.74597040  0.29787248  0.08632348  1
  H  H493  1  0.50751428  0.21731087  0.08807015  1
  H  H494  1  0.50180074  0.04340383  0.17982913  1
  C  C495  1  0.55433711  0.35050506  0.00419571  1
  C  C496  1  0.51482443  0.38067433  0.01772271  1
  C  C497  1  0.73090509  0.05885340  0.00052137  1
  H  H498  1  0.72019276  0.30092423  0.02003766  1
  C  C499  1  0.60579140  0.13579097  0.82983722  1
  H  H500  1  0.51561336  0.10441749  0.96671971  1
  N  N501  1  0.58475426  0.12122854  0.92185358  1
  H  H502  1  0.60669823  0.00503041  0.86940399  1
  H  H503  1  0.68112436  0.21861609  0.87393908  1
  H  H504  1  0.55795049  0.01725203  0.57055372  1
  H  H505  1  0.64253188  0.32017360  0.99224632  1
  H  H506  1  0.73025609  0.24055617  0.54550677  1
  C  C507  1  0.54157712  0.11333064  0.90581625  1
  C  C508  1  0.67570737  0.24620866  0.80998104  1
  H  H509  1  0.60545247  0.22760338  0.79842477  1
  N  N510  1  0.53336474  0.12319090  0.79678435  1
  C  C511  1  0.70145913  0.32515998  0.69387725  1
  C  C512  1  0.70942304  0.28309847  0.77151832  1
  H  H513  1  0.71900640  0.37786004  0.84984398  1
  H  H514  1  0.65078483  0.36891264  0.60548966  1
  N  N515  1  0.57727214  0.30163039  0.67938606  1
  C  C516  1  0.63313380  0.25257634  0.76732167  1
  H  H517  1  0.57738545  0.13662297  0.65691369  1
  H  H518  1  0.64091179  0.14759480  0.82683184  1
  C  C519  1  0.55720157  0.34811982  0.63780404  1
  C  C520  1  0.51321923  0.27817338  0.93519502  1
  C  C521  1  0.65821302  0.33407922  0.65954765  1
  H  H522  1  0.55395356  0.22126375  0.71803694  1
  C  C523  1  0.59894544  0.48748242  0.86636359  1
  H  H524  1  0.57503860  0.38713049  0.63036264  1
  H  H525  1  0.72932446  0.34910951  0.66330680  1
  C  C526  1  0.54643913  0.26180656  0.68967490  1
  C  C527  1  0.62419774  0.29874859  0.69941041  1
  C  C528  1  0.57311218  0.13316524  0.74580694  1
  C  C529  1  0.55359114  0.30389136  0.93924454  1
  H  H530  1  0.53104689  0.44944649  0.89282465  1
  H  H531  1  0.58442179  0.28873103  0.90620759  1
  H  H532  1  0.62634763  0.45945690  0.89607408  1
  H  H533  1  0.50977459  0.10458519  0.54192976  1
  C  C534  1  0.69567730  0.03926216  0.93499622  1
  C  C535  1  0.57136498  0.05545281  0.53969473  1
  H  H536  1  0.67670829  0.06035104  0.86916740  1
  N  N537  1  0.51388190  0.33815039  0.62603241  1
  H  H538  1  0.72749863  0.18589193  0.72269443  1
  N  N539  1  0.51849772  0.45348951  0.53945271  1
  C  C540  1  0.55204612  0.48315380  0.86553350  1
  H  H541  1  0.51337507  0.23752503  0.91177990  1
  H  H542  1  0.74604860  0.09905954  0.99919308  1
  C  C543  1  0.50649508  0.28530861  0.65477262  1
  H  H544  1  0.50530711  0.18323022  0.61506959  1
  C  C545  1  0.54619385  0.10114738  0.52144447  1
  C  C546  1  0.61711334  0.06056347  0.51312700  1
  C  C547  1  0.56157919  0.45082894  0.50189024  1
  H  H548  1  0.68176016  0.65217096  0.28740115  1
  N  N549  1  0.58479460  0.62875181  0.10034776  1
  C  C550  1  0.62423683  0.59842785  0.11284769  1
  C  C551  1  0.55500440  0.60593368  0.16474353  1
  C  C552  1  0.57447992  0.56024164  0.21516464  1
  C  C553  1  0.57419638  0.67971837  0.05244308  1
  N  N554  1  0.61721456  0.55989501  0.18151440  1
  H  H555  1  0.51176496  0.94481545  0.39864618  1
  C  C556  1  0.66892034  0.68652705  0.33064421  1
  H  H557  1  0.60194294  0.91129522  0.12393078  1
  C  C558  1  0.53644036  0.70986365  0.09458291  1
  C  C559  1  0.63573808  0.78232106  0.44558801  1
  H  H560  1  0.70420385  0.57856320  0.37662295  1
  C  C561  1  0.53494174  0.91478494  0.36057559  1
  H  H562  1  0.52238707  0.62351914  0.18053670  1
  C  C563  1  0.69266352  0.71480012  0.41435946  1
  C  C564  1  0.62619699  0.70519712  0.31349738  1
  H  H565  1  0.74061989  0.55751949  0.02883084  1
  H  H566  1  0.65467152  0.60639689  0.06605153  1
  C  C567  1  0.54120343  0.86305254  0.39746559  1
  C  C568  1  0.52892519  0.76065962  0.05429944  1
  H  H569  1  0.60839834  0.99393385  0.09311081  1
  C  C570  1  0.60975104  0.75150997  0.37037909  1
  H  H571  1  0.71853062  0.94250159  0.11555706  1
  H  H572  1  0.56612672  0.67297618  0.42587955  1
  H  H573  1  0.60347465  0.68086969  0.26247097  1
  C  C574  1  0.74163960  0.69686475  0.05813251  1
  N  N575  1  0.69496618  0.95620893  0.45071511  1
  C  C576  1  0.72101321  0.53976272  0.37693917  1
  N  N577  1  0.56749100  0.77177590  0.34677531  1
  C  C578  1  0.71646633  0.97899958  0.05998709  1
  H  H579  1  0.56113898  0.53323486  0.27707227  1
  H  H580  1  0.71956310  0.75382680  0.18321462  1
  C  C581  1  0.58519502  0.84133527  0.22429815  1
  C  C582  1  0.50137070  0.90748743  0.02205741  1
  C  C583  1  0.56357196  0.93141293  0.26991545  1
  N  N584  1  0.56952703  0.98521152  0.24521516  1
  C  C585  1  0.56325802  0.82830515  0.32228587  1
  C  C586  1  0.53056498  0.74031972  0.34144784  1
  C  C587  1  0.53629650  0.68464476  0.37399510  1
  C  C588  1  0.58736638  0.89588440  0.19918234  1
  H  H589  1  0.59733783  0.81277228  0.16425547  1
  N  N590  1  0.73689149  0.69859719  0.44774109  1
  C  C591  1  0.65848573  0.92750295  0.47680398  1
  H  H592  1  0.70828847  0.68286413  0.02873386  1
  H  H593  1  0.73465337  0.80970554  0.31554977  1
  H  H594  1  0.50055587  0.51150410  0.26829900  1
  H  H595  1  0.52215070  0.92328442  0.09220035  1
  H  H596  1  0.52491964  0.84896451  0.47630568  1
  C  C597  1  0.74872837  0.73664616  0.13996099  1
  H  H598  1  0.51772416  0.69371473  0.16129925  1
  H  H599  1  0.65758854  0.88351776  0.47346136  1
  C  C600  1  0.67781993  0.76384422  0.46658977  1
  C  C601  1  0.50159351  0.65032304  0.34980913  1
  H  H602  1  0.50550252  0.60773222  0.36914412  1
  H  H603  1  0.50241663  0.78483655  0.08757590  1
  H  H604  1  0.67096610  0.51211828  0.00445395  1
  H  H605  1  0.61999691  0.59302728  0.49086583  1
  H  H606  1  0.62214861  0.81420673  0.49873353  1
  C  C607  1  0.56935328  0.56483936  0.82699559  1
  C  C608  1  0.66901967  0.89620340  0.96213475  1
  H  H609  1  0.62981092  0.69111826  0.53713042  1
  C  C610  1  0.59688260  0.61281478  0.54443141  1
  H  H611  1  0.62378096  0.77000553  0.88517693  1
  C  C612  1  0.60131214  0.75348133  0.94543810  1
  C  C613  1  0.65561251  0.55870104  0.85259878  1
  H  H614  1  0.56773300  0.60917709  0.81783525  1
  N  N615  1  0.61022634  0.53814288  0.84441767  1
  C  C616  1  0.71065649  0.62234027  0.79776843  1
  C  C617  1  0.67158279  0.59416394  0.77144131  1
  H  H618  1  0.65230173  0.60048446  0.69558170  1
  H  H619  1  0.72477144  0.70802450  0.61789395  1
  H  H620  1  0.54314719  0.93290948  0.88830946  1
  C  C621  1  0.73707359  0.61281332  0.89140967  1
  C  C622  1  0.56863703  0.69870090  0.62633290  1
  C  C623  1  0.53740060  0.78413602  0.64556313  1
  H  H624  1  0.59997896  0.85155008  0.66562604  1
  C  C625  1  0.60110216  0.66881720  0.56928543  1
  C  C626  1  0.55444882  0.58967115  0.57723061  1
  C  C627  1  0.62506722  0.96412787  0.51087514  1
  H  H628  1  0.63817874  0.67663018  0.95902497  1
  C  C629  1  0.69941721  0.80283038  0.76824093  1
  H  H630  1  0.71352893  0.72185254  0.81331241  1
  H  H631  1  0.69864357  0.78187340  0.52698957  1
  C  C632  1  0.51288125  0.85857781  0.96986343  1
  H  H633  1  0.50267521  0.68584978  0.91681934  1
  H  H634  1  0.67990650  0.88360895  0.70962028  1
  N  N635  1  0.54792803  0.53465466  0.55715727  1
  N  N636  1  0.55696603  0.83740592  0.96673517  1
  C  C637  1  0.53198563  0.83263181  0.70934156  1
  C  C638  1  0.57859965  0.92573097  0.91099421  1
  C  C639  1  0.61134458  0.96434173  0.90433631  1
  C  C640  1  0.64778391  0.72826092  0.74059807  1
  C  C641  1  0.68133676  0.54244996  0.94530415  1
  C  C642  1  0.59049002  0.87416158  0.94820624  1
  H  H643  1  0.55703916  0.83742297  0.77337691  1
  H  H644  1  0.72462316  0.65005633  0.73845568  1
  C  C645  1  0.62606672  0.82427571  0.69405177  1
  C  C646  1  0.66936696  0.84120421  0.71890544  1
  C  C647  1  0.65607995  0.94982976  0.93656901  1
  H  H648  1  0.63863621  0.68658003  0.74749386  1
  C  C649  1  0.68814589  0.74802422  0.78008577  1
  C  C650  1  0.61698224  0.76845479  0.69912386  1
  N  N651  1  0.57356955  0.75087692  0.66969486  1
  H  H652  1  0.50126231  0.69169117  0.69986515  1
  C  C653  1  0.71942584  0.57274705  0.96098217  1
  C  C654  1  0.52612040  0.67108472  0.65206733  1
  C  C655  1  0.60867845  0.70135054  0.98295029  1
  C  C656  1  0.51885080  0.61952151  0.62832171  1
  N  N657  1  0.53556916  0.53190937  0.84113694  1
  C  C658  1  0.50234599  0.76907235  0.57409006  1
  C  C659  1  0.50920514  0.50325089  0.56806022  1
  H  H660  1  0.50626004  0.73326879  0.52683172  1
  N  N661  1  0.74105658  0.82087226  0.80940585  1
  H  H662  1  0.59185409  0.95626796  0.55354462  1
  C  C663  1  0.56359646  0.78270327  0.98723316  1
  N  N664  1  0.68731188  0.98994040  0.97489810  1
  H  H665  1  0.64685347  0.81744195  0.98690040  1
  C  C666  1  0.58085277  0.50176265  0.51712051  1
  C  C667  1  0.63692380  0.85811502  0.96786416  1
  H  H668  1  0.61540083  0.51307439  0.51236746  1
  H  H669  1  0.70415277  0.88374593  0.97428660  1
  H  H670  1  0.82195678  0.09933852  0.41099378  1
  C  C671  1  0.78768453  0.10832398  0.37981179  1
  H  H672  1  0.96896853  0.47807118  0.42051924  1
  C  C673  1  0.94435793  0.32561070  0.46222070  1
  C  C674  1  0.87811234  0.20701509  0.14630663  1
  N  N675  1  0.76463639  0.14921947  0.43522534  1
  H  H676  1  0.84696263  0.20274914  0.19365339  1
  C  C677  1  0.96740582  0.08010275  0.03823734  1
  C  C678  1  0.79041233  0.31500491  0.07483442  1
  H  H679  1  0.83088102  0.43458290  0.29765861  1
  C  C680  1  0.88550922  0.35468852  0.15515711  1
  N  N681  1  0.76216706  0.08943739  0.30228035  1
  H  H682  1  0.86582588  0.07492613  0.33825552  1
  H  H683  1  0.98154138  0.37947892  0.03524956  1
  C  C684  1  0.76409501  0.25500079  0.26795382  1
  H  H685  1  0.88486857  0.21089141  0.39477602  1
  C  C686  1  0.85586412  0.37809699  0.41110987  1
  H  H687  1  0.89650036  0.12385856  0.14328792  1
  C  C688  1  0.82996305  0.42138341  0.38161578  1
  H  H689  1  0.83250918  0.40437955  0.07455378  1
  C  C690  1  0.90606040  0.16528363  0.12183654  1
  C  C691  1  0.95649935  0.22613681  0.00973134  1
  C  C692  1  0.90922581  0.28690033  0.45405399  1
  H  H693  1  0.97041890  0.39619294  0.31128792  1
  Zn  Zn694  1  0.78492008  0.03005561  0.20731573  1
  C  C695  1  0.88097687  0.45061898  0.15691750  1
  C  C696  1  0.95202469  0.23141054  0.33365655  1
  H  H697  1  0.83468440  0.25997266  0.31641281  1
  C  C698  1  0.92007909  0.02239869  0.26058493  1
  C  C699  1  0.98803172  0.27048076  0.33739031  1
  N  N700  1  0.91889723  0.49615493  0.29941735  1
  C  C701  1  0.91356424  0.23830433  0.39465205  1
  C  C702  1  0.79834631  0.43690646  0.46255288  1
  C  C703  1  0.80886393  0.27113165  0.25684596  1
  H  H704  1  0.95467974  0.19497939  0.28796671  1
  H  H705  1  0.87946258  0.36336306  0.34662131  1
  H  H706  1  0.94031215  0.31313126  0.23921372  1
  C  C707  1  0.94099798  0.40166611  0.25720921  1
  C  C708  1  0.86291482  0.40245921  0.12202422  1
  N  N709  1  0.86661952  0.30488060  0.13266233  1
  C  C710  1  0.87729083  0.04304484  0.28639849  1
  C  C711  1  0.91692114  0.45059434  0.23265226  1
  H  H712  1  0.94413761  0.06499695  0.10019144  1
  C  C713  1  0.92664926  0.35288119  0.21498455  1
  C  C714  1  0.82003886  0.29919029  0.15886540  1
  C  C715  1  0.89014292  0.25910759  0.10761521  1
  C  C716  1  0.98357765  0.31702413  0.40927050  1
  C  C717  1  0.92921461  0.26804614  0.04061451  1
  H  H718  1  0.95410234  0.03702231  0.28766746  1
  N  N719  1  0.84890570  0.01603496  0.21767162  1
  C  C720  1  0.94247141  0.17506513  0.05143321  1
  N  N721  1  0.76281605  0.46940901  0.42151833  1
  H  H722  1  0.93606608  0.30939669  0.01438289  1
  N  N723  1  0.97059199  0.13291452  0.01446858  1
  H  H724  1  0.86595533  0.48696122  0.13090171  1
  H  H725  1  0.75341463  0.23186709  0.33818900  1
  N  N726  1  0.83122173  0.07709400  0.90214739  1
  C  C727  1  0.81164385  0.12752753  0.87268515  1
  C  C728  1  0.82978234  0.16230756  0.54840247  1
  H  H729  1  0.92754144  0.40792417  0.91770588  1
  C  C730  1  0.80618433  0.22185969  0.91391664  1
  N  N731  1  0.75303969  0.27663853  0.80667144  1
  H  H732  1  0.93237525  0.15727519  0.70604708  1
  C  C733  1  0.99586717  0.05299756  0.96553332  1
  C  C734  1  0.75603037  0.37258001  0.85141781  1
  H  H735  1  0.84148001  0.05766299  0.67792640  1
  C  C736  1  0.91378336  0.04334764  0.68614295  1
  N  N737  1  0.96914436  0.33430252  0.71011289  1
  H  H738  1  0.95623028  0.08712194  0.79459112  1
  C  C739  1  0.95135605  0.07282976  0.71094106  1
  H  H740  1  0.94072224  0.36120091  0.51426590  1
  C  C741  1  0.90935877  0.01935787  0.57974986  1
  C  C742  1  0.98216727  0.27948253  0.72732457  1
  H  H743  1  0.78099225  0.02567157  0.82662109  1
  C  C744  1  0.84381494  0.25981636  0.55308159  1
  C  C745  1  0.80392168  0.42435589  0.57579396  1
  C  C746  1  0.82744378  0.17395757  0.92932845  1
  C  C747  1  0.85878388  0.20477618  0.56316978  1
  N  N748  1  0.92421696  0.49156164  0.94311261  1
  H  H749  1  0.98423609  0.23359885  0.95427680  1
  C  C750  1  0.95773842  0.18685664  0.70523035  1
  H  H751  1  0.88853734  0.35507735  0.85276648  1
  C  C752  1  0.97804046  0.05428882  0.52303720  1
  N  N753  1  0.86112374  0.44876881  0.90713438  1
  C  C754  1  0.83105440  0.02795149  0.61140005  1
  C  C755  1  0.77770582  0.32363617  0.82452800  1
  C  C756  1  0.81317843  0.02844912  0.87162170  1
  C  C757  1  0.77777286  0.13049258  0.78956335  1
  N  N758  1  0.86526860  0.00484101  0.55767324  1
  C  C759  1  0.79694009  0.27211232  0.56432335  1
  H  H760  1  0.89409897  0.09879242  0.97148794  1
  H  H761  1  0.78379665  0.44027412  0.64485374  1
  H  H762  1  0.91456139  0.44454704  0.63495465  1
  C  C763  1  0.82500023  0.31674073  0.81727001  1
  C  C764  1  0.94819326  0.24210247  0.70646974  1
  C  C765  1  0.83269620  0.38261251  0.60488107  1
  C  C766  1  0.93680074  0.41235503  0.65903998  1
  H  H767  1  0.88647951  0.04177521  0.74436933  1
  N  N768  1  0.87129353  0.30072082  0.51760195  1
  C  C769  1  0.83161191  0.40632056  0.87986609  1
  H  H770  1  0.83727248  0.11917927  0.56119923  1
  H  H771  1  0.89954280  0.33455199  0.68222550  1
  C  C772  1  0.77139974  0.22678645  0.83381522  1
  N  N773  1  0.98172415  0.42010929  0.67011694  1
  C  C774  1  0.98295747  0.08320835  0.62451678  1
  C  C775  1  0.92990740  0.35831553  0.68737845  1
  H  H776  1  0.77283828  0.45535386  0.89621138  1
  C  C777  1  0.85290458  0.35577793  0.85477605  1
  C  C778  1  0.90765019  0.44402931  0.92246217  1
  H  H779  1  0.91311880  0.25415526  0.70901181  1
  H  H780  1  0.84104453  0.28018584  0.78578767  1
  C  C781  1  0.87316119  0.06717852  0.94079024  1
  H  H782  1  0.78300157  0.31268537  0.58223549  1
  H  H783  1  0.83912737  0.37463703  0.69018146  1
  C  C784  1  0.78514193  0.41585557  0.87258202  1
  H  H785  1  0.89456263  0.19502606  0.58344508  1
  C  C786  1  0.88340361  0.01288437  0.91927492  1
  C  C787  1  0.76621618  0.23169556  0.54201290  1
  C  C788  1  0.75625988  0.18036568  0.77864996  1
  C  C789  1  0.85470679  0.35414013  0.51832476  1
  H  H790  1  0.99872825  0.00966003  0.95313391  1
  H  H791  1  0.75483510  0.01429083  0.60492447  1
  C  C792  1  0.79039565  0.00564656  0.57636987  1
  H  H793  1  0.80133420  0.33502925  0.99755685  1
  H  H794  1  0.76627268  0.09445191  0.74897377  1
  H  H795  1  0.85668919  0.17089386  0.98423634  1
  C  C796  1  0.94617756  0.01638420  0.50340226  1
  H  H797  1  0.81791281  0.25861740  0.95708987  1
  C  C798  1  0.78611853  0.18093805  0.51218392  1
  H  H799  1  0.85407390  0.95908937  0.09264163  1
  N  N800  1  0.89619429  0.57572849  0.36423670  1
  Zn  Zn801  1  0.86195061  0.64331599  0.39552313  1
  C  C802  1  0.94271559  0.67032588  0.27908900  1
  C  C803  1  0.76615660  0.83003211  0.28733632  1
  N  N804  1  0.90386972  0.68789760  0.30763070  1
  H  H805  1  0.95331043  0.62719473  0.29674485  1
  H  H806  1  0.86350370  0.94690957  0.41853438  1
  H  H807  1  0.99718300  0.71854056  0.38986786  1
  H  H808  1  0.87072513  0.55140852  0.21885762  1
  Zn  Zn809  1  0.75601033  0.93183726  0.40916591  1
  H  H810  1  0.85924972  0.82698126  0.14074592  1
  C  C811  1  0.90209882  0.74255331  0.29150110  1
  C  C812  1  0.77188856  0.67967853  0.38273981  1
  H  H813  1  0.86387157  0.74034089  0.13267299  1
  N  N814  1  0.91689668  0.98245610  0.18597572  1
  C  C815  1  0.87005089  0.98203720  0.15680176  1
  N  N816  1  0.78382959  0.87580974  0.31268874  1
  C  C817  1  0.79263420  0.75704318  0.15363900  1
  C  C818  1  0.94300751  0.75921771  0.24730705  1
  C  C819  1  0.94979148  0.94870749  0.14133936  1
  C  C820  1  0.82504746  0.68748531  0.03571981  1
  C  C821  1  0.83098344  0.72922295  0.10964947  1
  N  N822  1  0.80487702  0.66986055  0.44904913  1
  C  C823  1  0.92908532  0.55429312  0.43069072  1
  N  N824  1  0.79646784  0.80689683  0.21139068  1
  C  C825  1  0.83125277  0.83863513  0.19087055  1
  C  C826  1  0.99420770  0.95144484  0.19123788  1
  H  H827  1  0.84701825  0.91526717  0.27976280  1
  H  H828  1  0.94230896  0.99393841  0.42611903  1
  H  H829  1  0.87306255  0.76672942  0.31588048  1
  C  C830  1  0.89092586  0.54196272  0.28409076  1
  C  C831  1  0.93915137  0.92243421  0.04489301  1
  H  H832  1  0.95640718  0.79966518  0.22563038  1
  C  C833  1  0.82432267  0.88220355  0.26303268  1
  N  N834  1  0.96829520  0.71402299  0.23676692  1
  H  H835  1  0.77577726  0.67764091  0.29317980  1
  H  H836  1  0.90428875  0.92523342  0.01134268  1
  C  C837  1  0.94563241  0.50739523  0.38599951  1
  C  C838  1  0.77953555  0.67593469  0.00553706  1
  C  C839  1  0.75421279  0.51930853  0.45007678  1
  N  N840  1  0.80066571  0.97298900  0.49179102  1
  C  C841  1  0.84449921  0.97013590  0.47914988  1
  H  H842  1  0.94388090  0.78251514  0.47505896  1
  H  H843  1  0.90329001  0.72037339  0.74637532  1
  C  C844  1  0.80803769  0.65012543  0.83030628  1
  C  C845  1  0.88573861  0.63420664  0.73102501  1
  C  C846  1  0.83987937  0.69275361  0.82627760  1
  C  C847  1  0.87874622  0.68853656  0.76641299  1
  C  C848  1  0.81422007  0.59981390  0.77290605  1
  C  C849  1  0.94122542  0.56056647  0.69590300  1
  H  H850  1  0.78829068  0.56959377  0.78215574  1
  C  C851  1  0.85345386  0.59214977  0.71648178  1
  C  C852  1  0.97940955  0.88119360  0.72335544  1
  C  C853  1  0.76929803  0.79132519  0.87222072  1
  N  N854  1  0.92694196  0.61415400  0.68937195  1
  N  N855  1  0.77531555  0.64468755  0.90903365  1
  C  C856  1  0.76333469  0.86906555  0.77740258  1
  C  C857  1  0.89113994  0.52953658  0.93924444  1
  Zn  Zn858  1  0.98798521  0.50405356  0.95577589  1
  H  H859  1  0.94839135  0.95311293  0.81694935  1
  C  C860  1  0.96032671  0.64209650  0.64065756  1
  H  H861  1  0.92071004  0.52833555  0.73740600  1
  C  C862  1  0.99550705  0.60584630  0.62249007  1
  H  H863  1  0.97815579  0.70797766  0.99721798  1
  H  H864  1  0.95885526  0.68487231  0.62329537  1
  C  C865  1  0.98514236  0.79747442  0.61758600  1
  C  C866  1  0.79400795  0.67973251  0.55604597  1
  C  C867  1  0.91296195  0.84759804  0.68135676  1
  H  H868  1  0.83506810  0.73367594  0.86163961  1
  H  H869  1  0.82009756  0.67372675  0.62520466  1
  H  H870  1  0.81902572  0.51879965  0.89832670  1
  C  C871  1  0.80677102  0.82329918  0.89208169  1
  N  N872  1  0.98099407  0.55686072  0.65611599  1
  H  H873  1  0.94076370  0.57514158  0.50628721  1
  C  C874  1  0.94539800  0.91387035  0.76833581  1
  Zn  Zn875  1  0.84737929  0.92110527  0.80399089  1
  N  N876  1  0.95842704  0.83903350  0.67067142  1
  H  H877  1  0.97545944  0.63200838  0.94112349  1
  N  N878  1  0.80063746  0.86708385  0.82848366  1
  N  N879  1  0.90600885  0.89082706  0.74157957  1
  H  H880  1  0.89797431  0.57401872  0.94411365  1
  H  H881  1  0.88561185  0.81959608  0.65905118  1
  H  H882  1  0.83852678  0.81344437  0.93132009  1
  H  H883  1  0.86094354  0.55631798  0.67139455  1
  H  H884  1  0.97252782  0.87295312  0.91225720  1
  C  C885  1  0.97529960  0.77334496  0.51480191  1
  H  H886  1  0.75431642  0.90161414  0.72114201  1
  H  H887  1  0.77075536  0.54008348  0.51923608  1
  N  N888  1  0.84618843  0.99224256  0.87401551  1
  H  H889  1  0.97596465  0.80963912  0.99720300  1
  C  C890  1  0.85237389  0.50262636  0.91254531  1
  H  H891  1  0.75632014  0.75304021  0.89864985  1
  C  C892  1  0.75031674  0.69714194  0.55383661  1
  H  H893  1  0.91840875  0.99427468  0.92445791  1
  H  H894  1  0.85096709  0.66743399  0.99830071  1
  C  C895  1  0.97362877  0.89252695  0.99415133  1
