# generated using pymatgen
data_Zn3H26C46(N5O8)2
_symmetry_space_group_name_H-M   'P 1'
_cell_length_a   22.95143005
_cell_length_b   19.24743945
_cell_length_c   21.83097313
_cell_angle_alpha   90.00000000
_cell_angle_beta   90.00000000
_cell_angle_gamma   90.00000000
_symmetry_Int_Tables_number   1
_chemical_formula_structural   Zn3H26C46(N5O8)2
_chemical_formula_sum   'Zn24 H208 C368 N80 O128'
_cell_volume   9643.96904481
_cell_formula_units_Z   8
loop_
 _symmetry_equiv_pos_site_id
 _symmetry_equiv_pos_as_xyz
  1  'x, y, z'
loop_
 _atom_site_type_symbol
 _atom_site_label
 _atom_site_symmetry_multiplicity
 _atom_site_fract_x
 _atom_site_fract_y
 _atom_site_fract_z
 _atom_site_occupancy
  H  H0  1  0.30392807  0.00673889  0.29352315  1
  O  O1  1  0.49993386  0.10003641  0.47044488  1
  H  H2  1  0.00871632  0.17532156  0.09388965  1
  N  N3  1  0.16397783  0.23602402  0.02599931  1
  H  H4  1  0.30046166  0.17785403  0.28615951  1
  O  O5  1  0.22757764  0.12866606  0.03389844  1
  H  H6  1  0.04801366  0.16949212  0.30291303  1
  H  H7  1  0.43138120  0.07163114  0.14186577  1
  C  C8  1  0.38266625  0.02338784  0.39481652  1
  C  C9  1  0.10454122  0.07606680  0.46034001  1
  O  O10  1  0.05411161  0.07886981  0.46287863  1
  O  O11  1  0.03793109  0.13926919  0.02358760  1
  H  H12  1  0.47520505  0.09563036  0.27621665  1
  N  N13  1  0.00036988  0.22336799  0.36500576  1
  O  O14  1  0.07351673  0.03149672  0.16560551  1
  H  H15  1  0.26515141  0.10744482  0.46135140  1
  C  C16  1  0.40853372  0.08546209  0.37393190  1
  C  C17  1  0.33532130  0.16421481  0.25508345  1
  C  C18  1  0.15834649  0.20966049  0.08061152  1
  H  H19  1  0.31834794  0.11714557  0.06445561  1
  C  C20  1  0.13126731  0.23704933  0.13448909  1
  C  C21  1  0.35853789  0.11169586  0.03841074  1
  H  H22  1  0.45140652  0.08333034  0.35052154  1
  C  C23  1  0.02043947  0.02118319  0.15615050  1
  C  C24  1  0.48570144  0.20025524  0.18273955  1
  O  O25  1  0.18794164  0.20528271  0.23107418  1
  C  C26  1  0.39372783  0.23146900  0.07822728  1
  N  N27  1  0.31359888  0.10773644  0.22729538  1
  C  C28  1  0.38888938  0.19673756  0.23985881  1
  C  C29  1  0.40573363  0.10139549  0.17609345  1
  C  C30  1  0.32850823  0.03246966  0.42656204  1
  H  H31  1  0.33257074  0.03194615  0.16269700  1
  N  N32  1  0.33053555  0.15527737  0.41028832  1
  C  C33  1  0.42862272  0.16428637  0.19979817  1
  C  C34  1  0.34911587  0.07669857  0.18779485  1
  O  O35  1  0.19043099  0.09708529  0.12123139  1
  C  C36  1  0.30461363  0.10016036  0.43325128  1
  C  C37  1  0.19305714  0.13654600  0.07710508  1
  C  C38  1  0.13868051  0.20519835  0.20717790  1
  C  C39  1  0.38145054  0.14942713  0.38246936  1
  H  H40  1  0.39565714  0.19810673  0.36499183  1
  O  O41  1  0.09527537  0.19140777  0.23524626  1
  C  C42  1  0.40122158  0.16449283  0.04331978  1
  H  H43  1  0.40281066  0.24879387  0.25871921  1
  O  O44  1  0.15470068  0.07383580  0.45517749  1
  H  H45  1  0.29566443  0.23049486  0.08705271  1
  C  C46  1  0.00357140  0.17606640  0.32067212  1
  C  C47  1  0.45256794  0.14791250  0.00949078  1
  C  C48  1  0.36807278  0.05008263  0.00451509  1
  H  H49  1  0.49054245  0.18303674  0.01404065  1
  O  O50  1  0.04866204  0.20719941  0.94502716  1
  C  C51  1  0.42459393  0.06464551  0.66987857  1
  N  N52  1  0.40696122  0.10806760  0.62814812  1
  O  O53  1  0.22241490  0.03479206  0.72725278  1
  C  C54  1  0.31583489  0.07716084  0.67529142  1
  O  O55  1  0.49729900  0.22263661  0.50359051  1
  C  C56  1  0.24685823  0.07776791  0.69030523  1
  C  C57  1  0.05438687  0.15214940  0.97179926  1
  C  C58  1  0.35011603  0.11177646  0.62945395  1
  H  H59  1  0.10034187  0.21222695  0.86107674  1
  N  N60  1  0.37728193  0.14901692  0.81819805  1
  H  H61  1  0.36245237  0.10398118  0.90334486  1
  C  C62  1  0.45727775  0.08663902  0.97363167  1
  C  C63  1  0.08715774  0.08620595  0.93177849  1
  C  C64  1  0.39072508  0.20555862  0.78474744  1
  C  C65  1  0.32979852  0.16300440  0.57387406  1
  H  H66  1  0.39765283  0.19359461  0.73374933  1
  N  N67  1  0.41581784  0.03819277  0.97215576  1
  O  O68  1  0.37138853  0.18819370  0.54536782  1
  H  H69  1  0.05352482  0.03260541  0.59058565  1
  N  N70  1  0.18832855  0.22320545  0.85450383  1
  H  H71  1  0.37051015  0.10034629  0.79520136  1
  Zn  Zn72  1  0.45900906  0.13681282  0.54978494  1
  O  O73  1  0.21541458  0.11393419  0.66135072  1
  O  O74  1  0.05551412  0.05168226  0.75700447  1
  C  C75  1  0.01792325  0.08910426  0.73365789  1
  N  N76  1  0.14280332  0.09879666  0.92894601  1
  C  C77  1  0.49416595  0.05519012  0.66055872  1
  C  C78  1  0.23697244  0.24022684  0.82338521  1
  C  C79  1  0.36928846  0.15488277  0.87866647  1
  O  O80  1  0.24957330  0.11951528  0.89196147  1
  N  N81  1  0.33467389  0.03891361  0.72012425  1
  C  C82  1  0.37518402  0.21837795  0.90664425  1
  O  O83  1  0.28030723  0.17340942  0.56320326  1
  Zn  Zn84  1  0.19232053  0.18917089  0.94934400  1
  C  C85  1  0.13616874  0.22483786  0.83116993  1
  C  C86  1  0.16476939  0.04349777  0.90113921  1
  C  C87  1  0.23291321  0.05852493  0.89618733  1
  H  H88  1  0.37220924  0.22020870  0.95630457  1
  O  O89  1  0.02544631  0.15220819  0.72696341  1
  H  H90  1  0.48214870  0.18244833  0.85100638  1
  H  H91  1  0.14427802  0.02736341  0.66316577  1
  C  C92  1  0.05496601  0.03509228  0.90018246  1
  H  H93  1  0.49539979  0.06245557  0.79595078  1
  H  H94  1  0.25104116  0.03792235  0.56853915  1
  N  N95  1  0.48203893  0.22682408  0.66314105  1
  C  C96  1  0.12877547  0.23992641  0.76887246  1
  O  O97  1  0.26964202  0.01090652  0.89109274  1
  H  H98  1  0.08369940  0.23452742  0.74964451  1
  H  H99  1  0.49905979  0.15873478  0.73121986  1
  C  C100  1  0.49831685  0.21529112  0.72117709  1
  C  C101  1  0.38967775  0.02507952  0.71359495  1
  H  H102  1  0.34077987  0.00384232  0.99349380  1
  H  H103  1  0.27726267  0.23676415  0.84994755  1
  H  H104  1  0.49757547  0.06584961  0.95293381  1
  N  N105  1  0.17138479  0.38947058  0.26109895  1
  Zn  Zn106  1  0.08776822  0.35152040  0.22265603  1
  N  N107  1  0.10620640  0.29532230  0.14127658  1
  O  O108  1  0.11652685  0.47720462  0.41997162  1
  O  O109  1  0.03406435  0.38808011  0.14045026  1
  C  C110  1  0.19533908  0.44300153  0.16628206  1
  Zn  Zn111  1  0.37509976  0.44453027  0.35314720  1
  C  C112  1  0.21522160  0.41792998  0.23391594  1
  H  H113  1  0.39133342  0.40388976  0.16449655  1
  C  C114  1  0.48893870  0.47655501  0.42953498  1
  Zn  Zn115  1  0.00328506  0.44586629  0.39677316  1
  H  H116  1  0.38497583  0.43447847  0.04753905  1
  H  H117  1  0.48456911  0.29094462  0.23803387  1
  C  C118  1  0.10669274  0.32407301  0.08431063  1
  N  N119  1  0.39067191  0.35624101  0.14104075  1
  H  H120  1  0.30482696  0.35326653  0.14265029  1
  O  O121  1  0.23676808  0.35450042  0.45141758  1
  O  O122  1  0.08395491  0.33774425  0.31587583  1
  C  C123  1  0.06356191  0.38751062  0.09423383  1
  C  C124  1  0.34148157  0.31911029  0.13146571  1
  C  C125  1  0.14215855  0.30163065  0.03321558  1
  C  C126  1  0.13219041  0.33517658  0.34575471  1
  N  N127  1  0.28588030  0.41615932  0.31564392  1
  N  N128  1  0.45922551  0.43608223  0.39376707  1
  C  C129  1  0.44449241  0.27101352  0.08607996  1
  C  C130  1  0.26961498  0.37650043  0.41354926  1
  O  O131  1  0.21526665  0.42016732  0.11656259  1
  H  H132  1  0.48817926  0.25600060  0.07122577  1
  H  H133  1  0.47849299  0.36693777  0.13353137  1
  C  C134  1  0.44037014  0.33257121  0.12018874  1
  C  C135  1  0.18724713  0.37368310  0.31743862  1
  O  O136  1  0.06407091  0.43655783  0.05744764  1
  C  C137  1  0.24362822  0.38841811  0.34596904  1
  C  C138  1  0.46130711  0.32127965  0.33659844  1
  O  O139  1  0.13031455  0.29952590  0.39181846  1
  C  C140  1  0.27226123  0.43098569  0.26019213  1
  O  O141  1  0.32372596  0.38665577  0.41819399  1
  Zn  Zn142  1  0.15653736  0.47649271  0.04465172  1
  O  O143  1  0.41775496  0.34168447  0.30711785  1
  O  O144  1  0.24910305  0.49918724  0.00934328  1
  H  H145  1  0.03775791  0.25349894  0.37546298  1
  C  C146  1  0.32747146  0.46579509  0.22437209  1
  O  O147  1  0.15315090  0.48117938  0.16500605  1
  C  C148  1  0.49328269  0.37986721  0.38166874  1
  O  O149  1  0.00513843  0.36474180  0.46849703  1
  O  O150  1  0.37054570  0.47392054  0.25863210  1
  O  O151  1  0.32262832  0.48702115  0.17405841  1
  N  N152  1  0.01763110  0.49533198  0.48255696  1
  N  N153  1  0.04776395  0.49028005  0.31997090  1
  H  H154  1  0.02946309  0.25478547  0.16254657  1
  O  O155  1  0.48365980  0.26506228  0.33494268  1
  C  C156  1  0.33782519  0.25672183  0.09887360  1
  H  H157  1  0.37393528  0.31057171  0.00155931  1
  H  H158  1  0.27038751  0.47347729  0.49590953  1
  H  H159  1  0.16374992  0.33189905  0.49540995  1
  C  C160  1  0.40719239  0.41027274  0.87248026  1
  C  C161  1  0.41041130  0.47126779  0.90790348  1
  C  C162  1  0.47847713  0.29309820  0.64066405  1
  N  N163  1  0.03191795  0.35873644  0.84063152  1
  C  C164  1  0.38493598  0.42068538  0.99716323  1
  H  H165  1  0.41719847  0.40993941  0.82175153  1
  C  C166  1  0.21647012  0.29796936  0.56660184  1
  C  C167  1  0.39896147  0.48426214  0.65370138  1
  C  C168  1  0.38730763  0.34953300  0.90478783  1
  O  O169  1  0.31240318  0.39733804  0.77958921  1
  C  C170  1  0.11671754  0.31708212  0.57620506  1
  C  C171  1  0.01503294  0.46683566  0.53626600  1
  H  H172  1  0.39387491  0.31805100  0.78060606  1
  H  H173  1  0.26378429  0.26531006  0.64475219  1
  H  H174  1  0.27483856  0.28720985  0.74014496  1
  C  C175  1  0.32587901  0.40253469  0.72408795  1
  O  O176  1  0.38808457  0.37714034  0.59492527  1
  O  O177  1  0.43978998  0.45950341  0.55266223  1
  C  C178  1  0.40978077  0.43349946  0.59564075  1
  O  O179  1  0.18739847  0.31292429  0.93530118  1
  O  O180  1  0.32145819  0.35301163  0.69251430  1
  C  C181  1  0.17736360  0.26816907  0.73632563  1
  N  N182  1  0.39517099  0.47930605  0.96441186  1
  C  C183  1  0.15733381  0.34235821  0.97301316  1
  H  H184  1  0.47740595  0.38466576  0.95809919  1
  C  C185  1  0.49869888  0.33928798  0.74294166  1
  O  O186  1  0.03207124  0.40291674  0.66847240  1
  C  C187  1  0.00041220  0.40907043  0.93336122  1
  O  O188  1  0.14187990  0.40501122  0.96733421  1
  C  C189  1  0.36365896  0.47257994  0.70662501  1
  C  C190  1  0.01861083  0.41629513  0.81145492  1
  C  C191  1  0.23362047  0.26690870  0.76372301  1
  C  C192  1  0.38336524  0.35666014  0.96947816  1
  H  H193  1  0.07445138  0.28987397  0.66115601  1
  C  C194  1  0.38977823  0.27084892  0.80823183  1
  C  C195  1  0.11581522  0.29641838  0.63874147  1
  N  N196  1  0.16480363  0.31723770  0.54320720  1
  C  C197  1  0.21989652  0.28715252  0.63150361  1
  C  C198  1  0.01896220  0.35054048  0.90055276  1
  C  C199  1  0.00158447  0.47698845  0.84445371  1
  C  C200  1  0.03297097  0.46483930  0.66111167  1
  H  H201  1  0.46527322  0.40133661  0.66668218  1
  H  H202  1  0.03228100  0.29454571  0.91784503  1
  H  H203  1  0.02404571  0.41431454  0.76026056  1
  H  H204  1  0.49388384  0.47792295  0.71140037  1
  H  H205  1  0.29037158  0.46168273  0.59935690  1
  C  C206  1  0.38136629  0.28213539  0.87303823  1
  C  C207  1  0.16939424  0.28421956  0.66881867  1
  C  C208  1  0.47924203  0.34821351  0.68203043  1
  H  H209  1  0.07946178  0.33187205  0.54645996  1
  O  O210  1  0.27055715  0.46332479  0.91889012  1
  H  H211  1  0.25137301  0.29119330  0.52950758  1
  H  H212  1  0.48208579  0.26856600  0.89146915  1
  H  H213  1  0.46873902  0.29312546  0.59231653  1
  Zn  Zn214  1  0.29129189  0.49927216  0.82768100  1
  C  C215  1  0.02803988  0.49993951  0.59346563  1
  O  O216  1  0.34306288  0.64655841  0.04778713  1
  C  C217  1  0.33539188  0.67104751  0.09957928  1
  Zn  Zn218  1  0.10168017  0.67532069  0.16751282  1
  O  O219  1  0.39842674  0.67621114  0.14589997  1
  Zn  Zn220  1  0.27363982  0.60597888  0.15113768  1
  C  C221  1  0.29114142  0.71865792  0.12127122  1
  N  N222  1  0.45767010  0.61031823  0.08312327  1
  C  C223  1  0.14003775  0.51366106  0.38242923  1
  C  C224  1  0.44786694  0.64913791  0.13178407  1
  O  O225  1  0.21975379  0.60135085  0.26111228  1
  N  N226  1  0.31905772  0.67162330  0.39060415  1
  C  C227  1  0.49553911  0.69492786  0.24182833  1
  H  H228  1  0.24536934  0.56583447  0.44487780  1
  O  O229  1  0.44971739  0.70650847  0.26587901  1
  N  N230  1  0.18341449  0.72751649  0.14719671  1
  C  C231  1  0.09774171  0.52480489  0.31894307  1
  Zn  Zn232  1  0.40056842  0.57402206  0.01449721  1
  H  H233  1  0.06533702  0.72233086  0.41471733  1
  H  H234  1  0.23898773  0.68099718  0.35803294  1
  C  C235  1  0.35893428  0.69913636  0.42841074  1
  O  O236  1  0.10748099  0.67126854  0.02338313  1
  O  O237  1  0.47212334  0.59707466  0.46559991  1
  H  H238  1  0.39566051  0.65989418  0.43442250  1
  O  O239  1  0.18577786  0.54318445  0.38624466  1
  C  C240  1  0.26975964  0.70892874  0.38934331  1
  C  C241  1  0.17211172  0.62545593  0.27165486  1
  C  C242  1  0.11494876  0.57176965  0.27547691  1
  O  O243  1  0.41166269  0.55227413  0.40209571  1
  O  O244  1  0.02089425  0.64138864  0.14585565  1
  C  C245  1  0.45585493  0.54685175  0.43391592  1
  O  O246  1  0.16069628  0.58697669  0.05831094  1
  N  N247  1  0.08669945  0.59503435  0.22527524  1
  C  C248  1  0.23591864  0.70033021  0.14351775  1
  C  C249  1  0.04260844  0.55028848  0.22060602  1
  O  O250  1  0.16366202  0.68931140  0.27393723  1
  C  C251  1  0.00871092  0.57894540  0.16080295  1
  C  C252  1  0.02261281  0.56524293  0.49151874  1
  O  O253  1  0.01664065  0.60097580  0.44620467  1
  C  C254  1  0.49806524  0.66036385  0.17672724  1
  C  C255  1  0.14232216  0.62345043  0.01422329  1
  C  C256  1  0.02035112  0.50513375  0.26826302  1
  C  C257  1  0.25522217  0.57744957  0.49498781  1
  H  H258  1  0.24391460  0.68988116  0.49823392  1
  N  N259  1  0.43003532  0.54070950  0.64509784  1
  O  O260  1  0.03773639  0.71611916  0.52693290  1
  N  N261  1  0.03908643  0.56582734  0.61075927  1
  C  C262  1  0.38938496  0.56803506  0.74600777  1
  Zn  Zn263  1  0.07694038  0.60800538  0.68800759  1
  N  N264  1  0.35351619  0.51557938  0.75293359  1
  O  O265  1  0.16639616  0.61188541  0.72231873  1
  C  C266  1  0.25290699  0.64296716  0.52546861  1
  O  O267  1  0.48641625  0.57269202  0.96937285  1
  O  O268  1  0.05552132  0.64603640  0.78048379  1
  C  C269  1  0.26709129  0.70756737  0.62540158  1
  C  C270  1  0.08461647  0.67783934  0.81982991  1
  C  C271  1  0.18160728  0.56607551  0.76028692  1
  H  H272  1  0.42913569  0.69942364  0.89090884  1
  C  C273  1  0.04428993  0.67404990  0.56993896  1
  O  O274  1  0.20371643  0.51158059  0.74138859  1
  O  O275  1  0.47908095  0.68912168  0.70934724  1
  H  H276  1  0.41982977  0.52803792  0.89199903  1
  O  O277  1  0.33869150  0.59487788  0.84110380  1
  N  N278  1  0.26857639  0.51802236  0.52391973  1
  H  H279  1  0.25346207  0.67054448  0.72034464  1
  C  C280  1  0.47632804  0.63770451  0.68050834  1
  C  C281  1  0.28307532  0.57629427  0.61742003  1
  C  C282  1  0.42723789  0.57893763  0.69371388  1
  O  O283  1  0.05745223  0.69455495  0.62194207  1
  N  N284  1  0.13412568  0.65565302  0.91393537  1
  C  C285  1  0.17433894  0.58681604  0.83062474  1
  C  C286  1  0.24277404  0.50342120  0.95460109  1
  O  O287  1  0.39786658  0.67412898  0.80608407  1
  C  C288  1  0.37250883  0.62030422  0.80060724  1
  C  C289  1  0.28136729  0.51444005  0.58431470  1
  N  N290  1  0.21522525  0.55273365  0.86167761  1
  C  C291  1  0.20191633  0.55824225  0.91953460  1
  C  C292  1  0.26664399  0.63846384  0.58965413  1
  H  H293  1  0.29886394  0.57670893  0.66539315  1
  O  O294  1  0.06583157  0.73245735  0.84197700  1
  C  C295  1  0.13578029  0.63821936  0.85702579  1
  C  C296  1  0.16297936  0.60875387  0.94729877  1
  C  C297  1  0.25936617  0.71464805  0.68815809  1
  C  C298  1  0.03473904  0.59577528  0.55730429  1
  O  O299  1  0.04111050  0.50309383  0.70574028  1
  Zn  Zn300  1  0.48702232  0.56080151  0.56161992  1
  C  C301  1  0.44979664  0.72828665  0.92742929  1
  H  H302  1  0.00193795  0.52959154  0.82259075  1
  C  C303  1  0.24678919  0.82768875  0.12504106  1
  O  O304  1  0.12219197  0.88796981  0.17711699  1
  O  O305  1  0.22906423  0.95033396  0.13547772  1
  C  C306  1  0.26116627  0.90201835  0.12385875  1
  N  N307  1  0.05454928  0.95343257  0.07817043  1
  N  N308  1  0.42500719  0.90630056  0.12360514  1
  H  H309  1  0.37925687  0.89834980  0.19903229  1
  C  C310  1  0.41808298  0.92151784  0.18191475  1
  H  H311  1  0.19195838  0.78566545  0.27625851  1
  C  C312  1  0.29119278  0.87347759  0.48306916  1
  O  O313  1  0.09193175  0.78554690  0.15603960  1
  H  H314  1  0.49260569  0.81720299  0.08198928  1
  C  C315  1  0.13254120  0.82716320  0.16315467  1
  O  O316  1  0.15069638  0.92636615  0.02715071  1
  H  H317  1  0.33338572  0.90030530  0.36161747  1
  C  C318  1  0.35561797  0.76274540  0.46107611  1
  C  C319  1  0.46962439  0.93992353  0.09780613  1
  C  C320  1  0.04533678  0.91319051  0.02974959  1
  C  C321  1  0.45414306  0.96570574  0.21757882  1
  Zn  Zn322  1  0.14209292  0.98307085  0.11189535  1
  C  C323  1  0.40820088  0.83412324  0.34227467  1
  O  O324  1  0.31554374  0.91567591  0.10817625  1
  H  H325  1  0.46910290  0.92923140  0.04837394  1
  N  N326  1  0.42969922  0.79274608  0.02217618  1
  C  C327  1  0.30459757  0.80190210  0.45193646  1
  N  N328  1  0.29714585  0.79025487  0.10785271  1
  N  N329  1  0.29945422  0.90626109  0.26257697  1
  C  C330  1  0.41294027  0.95526755  0.37917255  1
  Zn  Zn331  1  0.37453875  0.83688698  0.07648296  1
  C  C332  1  0.21359766  0.83774060  0.28504640  1
  C  C333  1  0.25768459  0.77231646  0.41631446  1
  C  C334  1  0.27830240  0.95710571  0.29746365  1
  H  H335  1  0.19765871  0.87126104  0.46238983  1
  N  N336  1  0.01169737  0.97725939  0.32170246  1
  C  C337  1  0.13891075  0.87073710  0.36412981  1
  C  C338  1  0.22452280  0.95083017  0.32800121  1
  C  C339  1  0.19238696  0.88708930  0.32738367  1
  C  C340  1  0.11767132  0.91536237  0.41048434  1
  C  C341  1  0.23313545  0.89992144  0.48449022  1
  C  C342  1  0.08765620  0.88400011  0.45767766  1
  H  H343  1  0.39421159  0.78056763  0.48752165  1
  N  N344  1  0.07208917  0.81818049  0.45649359  1
  C  C345  1  0.19278971  0.79756588  0.14401820  1
  C  C346  1  0.08501610  0.77611447  0.40824088  1
  H  H347  1  0.44882617  0.96793935  0.26731284  1
  H  H348  1  0.04476535  0.94926602  0.23675006  1
  H  H349  1  0.31033617  0.98844442  0.45211479  1
  C  C350  1  0.47448966  0.94866087  0.38027139  1
  H  H351  1  0.12822529  0.97119282  0.40937009  1
  C  C352  1  0.01675256  0.93231910  0.27537377  1
  H  H353  1  0.20701798  0.99911815  0.35018275  1
  C  C354  1  0.26664680  0.84908077  0.25587856  1
  H  H355  1  0.39008555  0.78357512  0.32643281  1
  C  C356  1  0.38184215  0.89579767  0.36074976  1
  H  H357  1  0.21783297  0.80059413  0.40494188  1
  H  H358  1  0.13029334  0.76702747  0.32220407  1
  N  N359  1  0.46633468  0.82990584  0.34337774  1
  H  H360  1  0.28565780  0.81027628  0.22166126  1
  C  C361  1  0.48642336  0.78741463  0.03468794  1
  C  C362  1  0.11958629  0.80019061  0.36035024  1
  C  C363  1  0.00523678  0.97754707  0.09736861  1
  C  C364  1  0.49749482  0.88450351  0.36503496  1
  H  H365  1  0.48894463  0.78246423  0.33409713  1
  C  C366  1  0.10460466  0.89829563  0.00390823  1
  H  H367  1  0.04553144  0.79454482  0.49161883  1
  H  H368  1  0.24821735  0.78567461  0.76820111  1
  C  C369  1  0.26242722  0.83358554  0.62874594  1
  C  C370  1  0.15567196  0.92402059  0.82913110  1
  O  O371  1  0.11236112  0.85876678  0.95952617  1
  C  C372  1  0.27389526  0.77261003  0.59526593  1
  O  O373  1  0.20936692  0.91572350  0.82198279  1
  C  C374  1  0.12086154  0.85979032  0.63711789  1
  C  C375  1  0.47771734  0.82187392  0.52166167  1
  C  C376  1  0.25392623  0.76234040  0.96416389  1
  H  H377  1  0.18470759  0.91348418  0.68014561  1
  Zn  Zn378  1  0.28114702  0.98497708  0.79010040  1
  C  C379  1  0.13383568  0.98684229  0.87097535  1
  C  C380  1  0.25429339  0.77845010  0.71964921  1
  C  C381  1  0.07008661  0.98291485  0.60917890  1
  N  N382  1  0.26588210  0.99442761  0.54577949  1
  N  N383  1  0.25487084  0.83897318  0.68960694  1
  N  N384  1  0.14847707  0.92026534  0.65321077  1
  O  O385  1  0.45568612  0.93701862  0.75919647  1
  H  H386  1  0.36550770  0.76166504  0.96882716  1
  O  O387  1  0.37244227  0.94701111  0.80085417  1
  H  H388  1  0.17910962  0.98628105  0.52067025  1
  H  H389  1  0.04458018  0.80602390  0.60126022  1
  O  O390  1  0.12054378  0.89364701  0.79615949  1
  C  C391  1  0.06812965  0.85635951  0.60749292  1
  H  H392  1  0.25735526  0.88619237  0.61235918  1
  C  C393  1  0.31864815  0.96587119  0.55323601  1
  Zn  Zn394  1  0.03428763  0.94110982  0.78981277  1
  C  C395  1  0.40853731  0.96404265  0.75942291  1
  C  C396  1  0.22184552  0.96156064  0.51570067  1
  C  C397  1  0.04189161  0.92051033  0.59019763  1
  H  H398  1  0.14824866  0.81599781  0.65082743  1
  O  O399  1  0.45263153  0.84213931  0.56423148  1
  C  C400  1  0.41311852  0.76159596  0.97003967  1
  N  N401  1  0.07695713  0.98781916  0.86382907  1
  C  C402  1  0.12080511  0.98151676  0.64438330  1
  H  H403  1  0.28771792  0.77620407  0.54751169  1
  O  O404  1  0.00102505  0.78179718  0.95472746  1
  H  H405  1  0.34555561  0.99999104  0.58339378  1
  Zn  Zn406  1  0.09289910  0.75289029  0.94163356  1
  C  C407  1  0.33421544  0.90793468  0.51843920  1
  O  O408  1  0.24406569  0.76607500  0.91702338  1
  H  H409  1  0.38149670  0.88957243  0.52105592  1
  H  H410  1  0.07325581  0.90809771  0.50180547  1
  H  H411  1  0.76256201  0.05587703  0.15791259  1
  C  C412  1  0.52219284  0.16029916  0.14492523  1
  C  C413  1  0.57766865  0.18351326  0.12648055  1
  C  C414  1  0.91587591  0.17749833  0.10492549  1
  N  N415  1  0.74224854  0.16118270  0.14503024  1
  H  H416  1  0.68508302  0.10123421  0.23910530  1
  C  C417  1  0.86914257  0.20230859  0.14006090  1
  O  O418  1  0.60234511  0.03200495  0.03451164  1
  C  C419  1  0.75716250  0.08941672  0.05869658  1
  H  H420  1  0.88924609  0.07324071  0.21598439  1
  C  C421  1  0.52088628  0.09007011  0.26926624  1
  C  C422  1  0.60433207  0.11819321  0.49446867  1
  O  O423  1  0.98333266  0.04183549  0.19020329  1
  H  H424  1  0.76646944  0.03805704  0.03573477  1
  N  N425  1  0.76419597  0.00985436  0.27153923  1
  N  N426  1  0.64964616  0.23318701  0.49893848  1
  N  N427  1  0.61583893  0.14477783  0.28067276  1
  C  C428  1  0.89798894  0.15206555  0.32208725  1
  C  C429  1  0.75819025  0.04824047  0.32277288  1
  H  H430  1  0.54779920  0.18162784  0.33073809  1
  H  H431  1  0.50389999  0.11060521  0.12519137  1
  C  C432  1  0.63724323  0.09868268  0.24246092  1
  C  C433  1  0.84563705  0.10989257  0.30218434  1
  C  C434  1  0.73024821  0.21135552  0.10728644  1
  C  C435  1  0.79790320  0.09716225  0.34479362  1
  C  C436  1  0.89679898  0.20474445  0.36972497  1
  C  C437  1  0.74057938  0.14173292  0.01691981  1
  H  H438  1  0.79164842  0.12666722  0.38667724  1
  C  C439  1  0.69544843  0.11940744  0.48738125  1
  C  C440  1  0.75058345  0.06400446  0.48198375  1
  C  C441  1  0.54810316  0.07076568  0.48226986  1
  C  C442  1  0.54581008  0.04335078  0.22648518  1
  H  H443  1  0.61291297  0.03012894  0.38788226  1
  H  H444  1  0.77926223  0.17582679  0.23468939  1
  H  H445  1  0.96248386  0.09986554  0.26232018  1
  O  O446  1  0.79773497  0.08343652  0.49553279  1
  C  C447  1  0.55950134  0.13954040  0.29477974  1
  C  C448  1  0.85110494  0.06989466  0.24797816  1
  C  C449  1  0.75668010  0.09918113  0.12283418  1
  O  O450  1  0.78700532  0.23432930  0.44897969  1
  H  H451  1  0.62002038  0.02130570  0.16874538  1
  C  C452  1  0.95568630  0.13699317  0.30106436  1
  H  H453  1  0.82310192  0.18926768  0.12603109  1
  O  O454  1  0.73987506  0.00590093  0.46033779  1
  H  H455  1  0.91550298  0.14788905  0.06183995  1
  N  N456  1  0.97207545  0.19628749  0.11512268  1
  H  H457  1  0.71807473  0.02606985  0.34581550  1
  O  O458  1  0.87548828  0.02756531  0.13043510  1
  C  C459  1  0.80992056  0.01653301  0.23797879  1
  H  H460  1  0.60968580  0.15721439  0.09711352  1
  C  C461  1  0.72339497  0.20354439  0.04320596  1
  C  C462  1  0.69375415  0.19291399  0.48933708  1
  C  C463  1  0.60492260  0.05064641  0.20726055  1
  C  C464  1  0.98185001  0.24479851  0.15723409  1
  H  H465  1  0.70895922  0.22630674  0.31065812  1
  C  C466  1  0.88144100  0.24938390  0.18827202  1
  H  H467  1  0.85416909  0.21924578  0.38852817  1
  H  H468  1  0.98739197  0.00314249  0.40609835  1
  C  C469  1  0.78485437  0.23177910  0.25054834  1
  O  O470  1  0.55124088  0.00800954  0.48512722  1
  C  C471  1  0.94808029  0.23394942  0.39186007  1
  N  N472  1  0.59957278  0.24031590  0.15397066  1
  H  H473  1  0.53824231  0.02028572  0.09801131  1
  N  N474  1  0.65000525  0.07889904  0.49239378  1
  C  C475  1  0.78560863  0.07732652  0.92162253  1
  H  H476  1  0.80544211  0.04191180  0.95421801  1
  C  C477  1  0.59642161  0.10936343  0.92527572  1
  Zn  Zn478  1  0.77448204  0.09351310  0.70354768  1
  C  C479  1  0.70360544  0.15442462  0.69132439  1
  C  C480  1  0.90513359  0.08323821  0.68696789  1
  C  C481  1  0.54945597  0.24350588  0.51393953  1
  H  H482  1  0.63544132  0.22099444  0.99990602  1
  H  H483  1  0.75831547  0.24119322  0.71257678  1
  O  O484  1  0.95486417  0.06122283  0.93272721  1
  N  N485  1  0.85677339  0.04834926  0.69257593  1
  C  C486  1  0.89714065  0.15839519  0.66380492  1
  C  C487  1  0.79073625  0.07242491  0.85804415  1
  H  H488  1  0.57582474  0.14174973  0.64645683  1
  C  C489  1  0.52156010  0.08358119  0.83482361  1
  N  N490  1  0.89888068  0.21703682  0.81153863  1
  C  C491  1  0.71575582  0.22622035  0.69717239  1
  C  C492  1  0.61059747  0.17433029  0.66138744  1
  C  C493  1  0.71281528  0.16666097  0.90493029  1
  H  H494  1  0.98325604  0.03987352  0.56072419  1
  N  N495  1  0.75924315  0.10914518  0.81844937  1
  C  C496  1  0.55406269  0.22874385  0.94702315  1
  H  H497  1  0.68174601  0.20849936  0.92230140  1
  N  N498  1  0.65336261  0.12740501  0.67335502  1
  C  C499  1  0.55730697  0.16203325  0.90891042  1
  C  C500  1  0.60202070  0.19381077  0.50387389  1
  O  O501  1  0.94367238  0.20056934  0.66108801  1
  O  O502  1  0.85092534  0.17409175  0.63853638  1
  H  H503  1  0.69185855  0.17227134  0.80472999  1
  O  O504  1  0.51270114  0.07118316  0.60657206  1
  C  C505  1  0.95948403  0.05322491  0.71540474  1
  H  H506  1  0.93290324  0.14772763  0.86318585  1
  H  H507  1  0.96802237  0.17301174  0.69367843  1
  C  C508  1  0.74801184  0.12864612  0.94730961  1
  N  N509  1  0.55920497  0.03309055  0.84754381  1
  C  C510  1  0.59332355  0.04404184  0.89501797  1
  H  H511  1  0.62977984  0.11105952  0.95917406  1
  C  C512  1  0.71854797  0.15098585  0.84442394  1
  O  O513  1  0.52450268  0.03739221  0.70039981  1
  C  C514  1  0.90422071  0.23674458  0.92364343  1
  H  H515  1  0.92051678  0.22193253  0.96989506  1
  C  C516  1  0.90992649  0.19699126  0.86938880  1
  H  H517  1  0.81763398  0.03797582  0.82566949  1
  H  H518  1  0.62336669  0.00232827  0.90349532  1
  C  C519  1  0.98353024  0.02576209  0.89903422  1
  C  C520  1  0.51710022  0.14747795  0.86331982  1
  H  H521  1  0.87726726  0.04107944  0.50674123  1
  C  C522  1  0.61512867  0.24582021  0.66584266  1
  O  O523  1  0.51012457  0.45865189  0.17149822  1
  C  C524  1  0.83846105  0.33951299  0.25831377  1
  O  O525  1  0.57386842  0.45209251  0.25660120  1
  H  H526  1  0.58574921  0.33717765  0.19293253  1
  C  C527  1  0.54239844  0.37297595  0.41600267  1
  C  C528  1  0.79364829  0.35739759  0.29807193  1
  C  C529  1  0.58435587  0.31144668  0.02276931  1
  C  C530  1  0.90117891  0.33188829  0.03017296  1
  H  H531  1  0.87381048  0.37546994  0.24615030  1
  H  H532  1  0.69149060  0.42716453  0.22252582  1
  C  C533  1  0.86229858  0.46461945  0.01899685  1
  H  H534  1  0.91366699  0.27750083  0.03676989  1
  H  H535  1  0.61061081  0.33599955  0.06027425  1
  C  C536  1  0.66583535  0.43649272  0.07265112  1
  H  H537  1  0.79011636  0.40638168  0.32410099  1
  C  C538  1  0.90450557  0.38199116  0.07757608  1
  C  C539  1  0.83318055  0.27213854  0.23070698  1
  H  H540  1  0.79396569  0.34686046  0.08285829  1
  H  H541  1  0.95459876  0.26934813  0.42997436  1
  C  C542  1  0.74434765  0.39055054  0.15775959  1
  O  O543  1  0.95176664  0.42699224  0.31401783  1
  N  N544  1  0.57892000  0.39453905  0.45270831  1
  O  O545  1  0.92604590  0.46572592  0.22573508  1
  C  C546  1  0.54674399  0.45468506  0.45559898  1
  C  C547  1  0.95971475  0.46317112  0.26757639  1
  H  H548  1  0.62259224  0.48106544  0.16101030  1
  C  C549  1  0.75544304  0.37650257  0.09560822  1
  N  N550  1  0.75070665  0.31866566  0.31765713  1
  N  N551  1  0.88533050  0.44718238  0.07265616  1
  C  C552  1  0.56652629  0.28424976  0.18809029  1
  H  H553  1  0.91625119  0.36854391  0.12531495  1
  N  N554  1  0.69786338  0.42679883  0.17513620  1
  H  H555  1  0.77602116  0.38078943  0.19415125  1
  H  H556  1  0.88780671  0.48605593  0.11099660  1
  H  H557  1  0.95366407  0.30727957  0.23477194  1
  C  C558  1  0.65790668  0.45219039  0.13465252  1
  C  C559  1  0.54136482  0.45450686  0.21458297  1
  C  C560  1  0.71491673  0.39476811  0.05085762  1
  N  N561  1  0.54430529  0.35663923  0.01088889  1
  C  C562  1  0.51026871  0.26316419  0.20659635  1
  O  O563  1  0.73628294  0.31342694  0.49474551  1
  Zn  Zn564  1  0.64864331  0.34720065  0.48818680  1
  C  C565  1  0.74808120  0.25620962  0.29409185  1
  H  H566  1  0.71311537  0.25030700  0.01760679  1
  H  H567  1  0.72288628  0.25845523  0.13587980  1
  C  C568  1  0.94023580  0.26964788  0.19885255  1
  C  C569  1  0.74631851  0.25083817  0.47951096  1
  H  H570  1  0.63245102  0.45643193  0.04162334  1
  C  C571  1  0.66920635  0.27356923  0.68853624  1
  C  C572  1  0.87576024  0.28004649  0.80624415  1
  C  C573  1  0.99565696  0.38723759  0.52198981  1
  N  N574  1  0.71450110  0.33306552  0.86184744  1
  C  C575  1  0.51032738  0.39887310  0.78481252  1
  H  H576  1  0.65109798  0.45198866  0.95517323  1
  H  H577  1  0.86672167  0.29287716  0.75562430  1
  C  C578  1  0.50937628  0.34239127  0.96322244  1
  C  C579  1  0.85402907  0.41925078  0.96953383  1
  O  O580  1  0.55697287  0.30334662  0.53189368  1
  H  H581  1  0.66170955  0.40307148  0.83744568  1
  C  C582  1  0.75394444  0.32333914  0.96251244  1
  C  C583  1  0.88038653  0.35170284  0.97278243  1
  C  C584  1  0.62876613  0.38573137  0.73511634  1
  O  O585  1  0.62704286  0.46203225  0.52961301  1
  H  H586  1  0.82670600  0.43437032  0.93019449  1
  O  O587  1  0.97065941  0.35318613  0.55969032  1
  C  C588  1  0.67351746  0.35062214  0.70103018  1
  C  C589  1  0.51405967  0.27062569  0.75926144  1
  C  C590  1  0.87249010  0.32654673  0.85605471  1
  H  H591  1  0.53287159  0.26112703  0.80326818  1
  C  C592  1  0.71810960  0.37851496  0.98289663  1
  H  H593  1  0.98976976  0.40094527  0.98036821  1
  C  C594  1  0.74996069  0.30058820  0.90137794  1
  C  C595  1  0.53546615  0.39169455  0.84490434  1
  H  H596  1  0.86548524  0.38137869  0.85118639  1
  H  H597  1  0.75915805  0.36106084  0.65553257  1
  H  H598  1  0.57622137  0.27910513  0.66286925  1
  C  C599  1  0.63734465  0.45664847  0.74759363  1
  C  C600  1  0.98941392  0.47556427  0.90746350  1
  C  C601  1  0.51313077  0.28108191  0.92938022  1
  C  C602  1  0.72307782  0.38818509  0.67892030  1
  C  C603  1  0.88188516  0.30489450  0.91726010  1
  H  H604  1  0.58954024  0.35790977  0.75156651  1
  H  H605  1  0.55220108  0.34166599  0.86408883  1
  H  H606  1  0.55932839  0.45580261  0.93218098  1
  C  C607  1  0.68534083  0.39038426  0.87892709  1
  C  C608  1  0.72416109  0.45860968  0.69699846  1
  C  C609  1  0.54267084  0.45183820  0.88272356  1
  C  C610  1  0.67918682  0.41095106  0.94014148  1
  H  H611  1  0.77473971  0.26057126  0.87518336  1
  C  C612  1  0.50589133  0.46722218  0.76014206  1
  H  H613  1  0.78173771  0.29433519  0.99541525  1
  N  N614  1  0.68346163  0.49099616  0.72834203  1
  H  H615  1  0.60816163  0.49109204  0.77760750  1
  C  C616  1  0.59538847  0.25022105  0.99003714  1
  C  C617  1  0.58571145  0.49080739  0.51001719  1
  N  N618  1  0.55383601  0.65252508  0.16972274  1
  C  C619  1  0.56009564  0.62230099  0.11501932  1
  Zn  Zn620  1  0.62033784  0.66374605  0.23485876  1
  N  N621  1  0.74162321  0.62064589  0.23928055  1
  C  C622  1  0.81643903  0.54119116  0.25706224  1
  H  H623  1  0.79848916  0.69989306  0.32358048  1
  N  N624  1  0.82685446  0.51890813  0.31090739  1
  O  O625  1  0.66334257  0.68444307  0.31815177  1
  H  H626  1  0.85266361  0.52086734  0.02559222  1
  H  H627  1  0.81019022  0.69215910  0.22978270  1
  O  O628  1  0.77602305  0.63357573  0.11162946  1
  C  C629  1  0.94884967  0.61599822  0.02858566  1
  C  C630  1  0.62900314  0.61988544  0.10335268  1
  H  H631  1  0.89690474  0.63036583  0.42768751  1
  O  O632  1  0.83750252  0.54796476  0.12825048  1
  O  O633  1  0.97302512  0.54462061  0.13670205  1
  O  O634  1  0.70120815  0.62553094  0.39598878  1
  Zn  Zn635  1  0.74162750  0.63873320  0.01998449  1
  H  H636  1  0.96168521  0.64281945  0.07238485  1
  C  C637  1  0.92214624  0.73458128  0.38773160  1
  C  C638  1  0.51290310  0.59871824  0.07700534  1
  C  C639  1  0.91205818  0.66411031  0.38806202  1
  C  C640  1  0.69796031  0.63782370  0.34138711  1
  C  C641  1  0.74233691  0.60744315  0.29890751  1
  C  C642  1  0.78535287  0.58352423  0.21538448  1
  C  C643  1  0.93178603  0.65195127  0.28349346  1
  C  C644  1  0.80157149  0.58904542  0.14646222  1
  O  O645  1  0.54182113  0.70368049  0.27457176  1
  H  H646  1  0.77296625  0.72564590  0.44525196  1
  O  O647  1  0.65535514  0.59442503  0.05945031  1
  O  O648  1  0.65899525  0.64291171  0.14552052  1
  C  C649  1  0.78426883  0.55825705  0.31900248  1
  H  H650  1  0.92898107  0.61299251  0.24644517  1
  C  C651  1  0.94255827  0.72332798  0.27995015  1
  H  H652  1  0.90290874  0.57551386  0.33353096  1
  N  N653  1  0.91252422  0.62533189  0.33633017  1
  H  H654  1  0.85768966  0.69930657  0.11815082  1
  C  C655  1  0.52348117  0.55949322  0.01094924  1
  H  H656  1  0.95160697  0.74769902  0.23438188  1
  H  H657  1  0.99451279  0.51402248  0.03205305  1
  C  C658  1  0.83474601  0.74076035  0.21362595  1
  O  O659  1  0.73427413  0.74963274  0.02216150  1
  C  C660  1  0.86184873  0.73792850  0.15590635  1
  N  N661  1  0.91534491  0.65888566  0.00051539  1
  O  O662  1  0.55963240  0.51559168  0.00237745  1
  C  C663  1  0.96909180  0.55042338  0.00587346  1
  O  O664  1  0.82043424  0.59229537  0.75170954  1
  H  H665  1  0.93001792  0.58228523  0.86022550  1
  H  H666  1  0.67186200  0.62628626  0.78679002  1
  O  O667  1  0.85116053  0.72653351  0.52720634  1
  C  C668  1  0.58284272  0.66605657  0.79745167  1
  C  C669  1  0.80715284  0.68839648  0.82577691  1
  C  C670  1  0.82938596  0.65179131  0.76418755  1
  C  C671  1  0.55678522  0.69807338  0.89758104  1
  H  H672  1  0.58034854  0.66131886  0.74786577  1
  C  C673  1  0.64648597  0.63823466  0.87634106  1
  O  O674  1  0.85387241  0.60609658  0.52631276  1
  N  N675  1  0.76609817  0.68588709  0.93220703  1
  N  N676  1  0.63562526  0.64087749  0.81650349  1
  C  C677  1  0.60813772  0.66678282  0.92048734  1
  H  H678  1  0.87997543  0.68725667  0.92019813  1
  O  O679  1  0.57173700  0.54885992  0.52541766  1
  H  H680  1  0.69110644  0.61852131  0.88738170  1
  C  C681  1  0.78857415  0.65503823  0.88223978  1
  C  C682  1  0.78883375  0.57772381  0.90412449  1
  C  C683  1  0.96730341  0.54074248  0.94199191  1
  C  C684  1  0.90796768  0.64394135  0.93992739  1
  C  C685  1  0.93419697  0.58929099  0.90938544  1
  O  O686  1  0.85071974  0.69185885  0.72444289  1
  C  C687  1  0.54175511  0.69812773  0.83339685  1
  O  O688  1  0.76012897  0.56078307  0.95238344  1
  O  O689  1  0.81708120  0.53644029  0.87562174  1
  C  C690  1  0.51097374  0.72502699  0.94133831  1
  H  H691  1  0.61698147  0.66160096  0.97133845  1
  N  N692  1  0.53251789  0.51633907  0.85989427  1
  H  H693  1  0.54308887  0.55884122  0.88676880  1
  H  H694  1  0.75472600  0.50249114  0.68447187  1
  C  C695  1  0.85134356  0.66638310  0.52717032  1
  H  H696  1  0.51179170  0.57951029  0.79028505  1
  H  H697  1  0.50165752  0.72399727  0.81620736  1
  C  C698  1  0.51775167  0.52330614  0.80024266  1
  O  O699  1  0.50714660  0.63144672  0.63102337  1
  C  C700  1  0.95881280  0.89206986  0.37647466  1
  C  C701  1  0.84187875  0.80198674  0.24968140  1
  H  H702  1  0.65438660  0.78623021  0.32845988  1
  C  C703  1  0.94848747  0.96620493  0.06709155  1
  C  C704  1  0.62258637  0.89117390  0.17031691  1
  H  H705  1  0.57838778  0.90915651  0.17630302  1
  C  C706  1  0.99274887  0.86662532  0.27728515  1
  H  H707  1  0.67369489  0.83092717  0.43481417  1
  C  C708  1  0.65456715  0.87264233  0.22386401  1
  H  H709  1  0.75943276  0.78855447  0.13497521  1
  C  C710  1  0.98393477  0.95917874  0.37210529  1
  C  C711  1  0.62217147  0.97588521  0.37385116  1
  C  C712  1  0.70675914  0.83576561  0.21507831  1
  H  H713  1  0.61342171  0.88197793  0.06879231  1
  H  H714  1  0.93708346  0.87549742  0.41725610  1
  C  C715  1  0.64967782  0.84242283  0.33725352  1
  C  C716  1  0.72424768  0.82203484  0.15405796  1
  N  N717  1  0.89228321  0.78767532  0.13035823  1
  H  H718  1  0.81976771  0.92292689  0.31376244  1
  C  C719  1  0.96257799  0.84039111  0.32929894  1
  N  N720  1  0.69226113  0.84205289  0.10673765  1
  H  H721  1  0.88943431  0.90518137  0.25082037  1
  O  O722  1  0.84744366  0.98519746  0.04407434  1
  H  H723  1  0.73750528  0.82373013  0.25264195  1
  H  H724  1  0.70843868  0.83359534  0.06356958  1
  C  C725  1  0.98471843  0.89414231  0.00652077  1
  C  C726  1  0.87803975  0.85850830  0.22311624  1
  N  N727  1  0.78374842  0.82461999  0.43953315  1
  C  C728  1  0.81660707  0.80797806  0.31300601  1
  N  N729  1  0.64247945  0.93250256  0.41634916  1
  C  C730  1  0.81394409  0.87337972  0.34185318  1
  C  C731  1  0.79326464  0.87896708  0.40236076  1
  C  C732  1  0.50822736  0.98875197  0.12622875  1
  N  N733  1  0.93604765  0.92693418  0.01968773  1
  C  C734  1  0.89859100  0.84739035  0.16480094  1
  H  H735  1  0.77910647  0.92905505  0.42962562  1
  O  O736  1  0.56148525  0.92730368  0.00427723  1
  C  C737  1  0.79757191  0.75119103  0.34891830  1
  H  H738  1  0.92830455  0.87756850  0.13431897  1
  C  C739  1  0.61807586  0.95606566  0.31301691  1
  H  H740  1  0.54505991  0.87539264  0.36843380  1
  H  H741  1  0.57430044  0.75861098  0.00273978  1
  C  C742  1  0.64003028  0.87434206  0.11234668  1
  C  C743  1  0.63589826  0.89057101  0.28918560  1
  C  C744  1  0.65652064  0.86684815  0.39801519  1
  H  H745  1  0.99647479  0.83779833  0.23489682  1
  C  C746  1  0.94225037  0.76496542  0.33163240  1
  C  C747  1  0.78320053  0.76356729  0.41051756  1
  H  H748  1  0.60358194  0.99977022  0.28389716  1
  C  C749  1  0.58160771  0.97958926  0.01819515  1
  H  H750  1  0.91233326  0.76709022  0.42824655  1
  H  H751  1  0.80737739  0.98015147  0.19888715  1
  C  C752  1  0.50615407  0.99396494  0.19071294  1
  C  C753  1  0.88668143  0.99619136  0.08427876  1
  H  H754  1  0.50315574  0.99149325  0.39275147  1
  H  H755  1  0.87129347  0.83572598  0.49355002  1
  O  O756  1  0.50472464  0.80090509  0.48065149  1
  C  C757  1  0.76015379  0.78619867  0.98330520  1
  C  C758  1  0.60928269  0.86684444  0.70551410  1
  N  N759  1  0.63444558  0.91680545  0.58405327  1
  C  C760  1  0.58238426  0.93001752  0.61169718  1
  O  O761  1  0.76455478  0.96916051  0.66905371  1
  C  C762  1  0.56185649  0.84803843  0.87121460  1
  C  C763  1  0.66262029  0.85289545  0.67285164  1
  C  C764  1  0.66280775  0.83764336  0.87210664  1
  C  C765  1  0.67130662  0.87895353  0.61261039  1
  C  C766  1  0.80708878  0.86688005  0.85223653  1
  H  H767  1  0.52299349  0.84863140  0.90015553  1
  O  O768  1  0.92215101  0.82419118  0.68596386  1
  N  N769  1  0.61236104  0.84477040  0.90164477  1
  O  O770  1  0.81733125  0.87891384  0.65362387  1
  C  C771  1  0.94624945  0.87485137  0.70883990  1
  C  C772  1  0.79391187  0.78932328  0.86466259  1
  H  H773  1  0.55650199  0.96846140  0.58544935  1
  O  O774  1  0.92336890  0.84303996  0.93465198  1
  C  C775  1  0.86882967  0.98127899  0.68471339  1
  C  C776  1  0.56744140  0.90059072  0.66816935  1
  C  C777  1  0.66466726  0.84836708  0.80896445  1
  C  C778  1  0.97164210  0.83658989  0.96041995  1
  O  O779  1  0.95861594  0.98387572  0.86413878  1
  C  C780  1  0.61208869  0.84654176  0.77264005  1
  N  N781  1  0.87143775  0.93963220  0.50392356  1
  H  H782  1  0.52432443  0.90572850  0.68857430  1
  H  H783  1  0.69525691  0.82041486  0.69501193  1
  Zn  Zn784  1  0.84135363  0.80297241  0.73075721  1
  Zn  Zn785  1  0.64614181  0.96576419  0.50272010  1
  O  O786  1  0.82355605  0.88658409  0.80058211  1
  C  C787  1  0.81144605  0.94013081  0.66777493  1
  C  C788  1  0.92498250  0.95346597  0.70338264  1
  O  O789  1  0.80331604  0.90886180  0.89324329  1
  H  H790  1  0.70925089  0.85738435  0.78869067  1
  C  C791  1  0.56085520  0.85499818  0.80726104  1
  H  H792  1  0.96793713  0.81316628  0.54331548  1
  H  H793  1  0.71028373  0.87212284  0.58574456  1
  H  H794  1  0.51917049  0.86704474  0.78502767  1
  C  C795  1  0.95123247  0.86775628  0.53896120  1
  N  N796  1  0.96709153  0.98871563  0.73147084  1
  C  C797  1  0.90446682  0.99485756  0.51814619  1
  C  C798  1  0.89547991  0.87643752  0.51380920  1
  C  C799  1  0.95814336  0.99171512  0.55034573  1
  H  H800  1  0.69585325  0.83703803  0.90803430  1
  N  N801  1  0.80487416  0.75392058  0.81267292  1
  Zn  Zn802  1  0.85250822  0.89994668  0.98276799  1
  C  C803  1  0.77290965  0.75423985  0.92037235  1
  O  O804  1  0.76924067  0.84973635  0.99527241  1
  C  C805  1  0.98249086  0.92532866  0.56168856  1
  O  O806  1  0.99357730  0.86356221  0.73631922  1
  C  C807  1  0.52708415  0.75548576  0.99711367  1
