# generated using pymatgen
data_Zn4H24C45O13
_symmetry_space_group_name_H-M   'P 1'
_cell_length_a   28.98011195
_cell_length_b   16.88557924
_cell_length_c   51.20847047
_cell_angle_alpha   90.00000000
_cell_angle_beta   90.00000000
_cell_angle_gamma   90.00000000
_symmetry_Int_Tables_number   1
_chemical_formula_structural   Zn4H24C45O13
_chemical_formula_sum   'Zn96 H576 C1080 O312'
_cell_volume   25058.65899255
_cell_formula_units_Z   24
loop_
 _symmetry_equiv_pos_site_id
 _symmetry_equiv_pos_as_xyz
  1  'x, y, z'
loop_
 _atom_site_type_symbol
 _atom_site_label
 _atom_site_symmetry_multiplicity
 _atom_site_fract_x
 _atom_site_fract_y
 _atom_site_fract_z
 _atom_site_occupancy
  C  C0  1  0.13031827  0.28327492  0.04919306  1
  H  H1  1  0.13804407  0.31223368  0.10810699  1
  C  C2  1  0.12129364  0.19904035  0.04887316  1
  C  C3  1  0.08295633  0.17037552  0.06226555  1
  H  H4  1  0.07644503  0.10514720  0.06259414  1
  C  C5  1  0.17481047  0.29658577  0.03505327  1
  C  C6  1  0.19049021  0.22313719  0.02438808  1
  C  C7  1  0.15513207  0.15577947  0.03072032  1
  H  H8  1  0.17327166  0.10372688  0.03992432  1
  C  C9  1  0.10073216  0.33939440  0.06182620  1
  C  C10  1  0.15096557  0.37400260  0.11309023  1
  C  C11  1  0.19236832  0.40256740  0.09551984  1
  C  C12  1  0.19818364  0.36831718  0.02680503  1
  H  H13  1  0.10723026  0.40400957  0.06157002  1
  H  H14  1  0.19030632  0.42821156  0.03426129  1
  C  C15  1  0.05419795  0.22768148  0.07351057  1
  C  C16  1  0.06072024  0.31172794  0.07405454  1
  H  H17  1  0.03720418  0.35028309  0.08505022  1
  O  O18  1  0.00597625  0.11942523  0.09143651  1
  C  C19  1  0.01528738  0.19480614  0.08962476  1
  C  C20  1  0.11544660  0.44139049  0.10987985  1
  Zn  Zn21  1  0.16726643  0.07880812  0.09637093  1
  H  H22  1  0.05185272  0.39563771  0.12926679  1
  H  H23  1  0.16196420  0.37605940  0.13420318  1
  C  C24  1  0.07082789  0.44624702  0.12036824  1
  C  C25  1  0.15262856  0.04397490  0.17562797  1
  C  C26  1  0.03759261  0.28549164  0.16699138  1
  H  H27  1  0.18684898  0.27438643  0.15569005  1
  H  H28  1  0.09098358  0.19295761  0.17199040  1
  C  C29  1  0.17008828  0.29501766  0.17513184  1
  C  C30  1  0.19106578  0.37620059  0.18145337  1
  C  C31  1  0.11760762  0.31345868  0.17366473  1
  C  C32  1  0.08303320  0.25717904  0.17063008  1
  H  H33  1  0.17841703  0.24799397  0.19091701  1
  C  C34  1  0.17992667  0.09386328  0.19176835  1
  C  C35  1  0.06261671  0.42231132  0.17255969  1
  H  H36  1  0.05827204  0.30393237  0.21299843  1
  C  C37  1  0.22953939  0.10429048  0.18634211  1
  C  C38  1  0.11000068  0.39874005  0.17490310  1
  C  C39  1  0.15629485  0.43658418  0.18060871  1
  C  C40  1  0.06041597  0.27214535  0.23184769  1
  C  C41  1  0.14362526  0.40981323  0.24289582  1
  C  C42  1  0.15574658  0.12507681  0.21327499  1
  H  H43  1  0.11900305  0.10597189  0.21708774  1
  C  C44  1  0.22136032  0.20652622  0.22168042  1
  C  C45  1  0.02777247  0.36564227  0.16806449  1
  C  C46  1  0.02553909  0.21632996  0.23547780  1
  C  C47  1  0.23494836  0.39262161  0.18771953  1
  C  C48  1  0.17487165  0.18251232  0.22882283  1
  H  H49  1  0.13599445  0.41565160  0.22227702  1
  C  C50  1  0.07693438  0.46203438  0.00762243  1
  C  C51  1  0.23357732  0.36878350  0.08882751  1
  C  C52  1  0.02231524  0.47614511  0.04190210  1
  C  C53  1  0.18182226  0.47893320  0.08475564  1
  H  H54  1  0.13723006  0.12655023  0.01304642  1
  C  C55  1  0.04336516  0.39263885  0.00414561  1
  O  O56  1  0.10978661  0.03501279  0.17953301  1
  C  C57  1  0.22968022  0.21073336  0.00955469  1
  C  C58  1  0.00818314  0.40738172  0.02725812  1
  H  H59  1  0.16026711  0.20701752  0.24651480  1
  H  H60  1  0.05827680  0.33044045  0.00512494  1
  C  C61  1  0.24715251  0.16756190  0.20186743  1
  C  C62  1  0.23363156  0.13887466  0.11088459  1
  O  O63  1  0.23781135  0.19690468  0.09748014  1
  H  H64  1  0.21033284  0.01357612  0.15971387  1
  H  H65  1  0.24082007  0.45263984  0.12640055  1
  O  O66  1  0.24196334  0.06527225  0.03952487  1
  O  O67  1  0.03917869  0.00849069  0.03062919  1
  H  H68  1  0.24036334  0.30984182  0.09787116  1
  O  O69  1  0.17291750  0.00692527  0.15523055  1
  O  O70  1  0.00840424  0.15329911  0.16305143  1
  H  H71  1  0.00181205  0.21070799  0.21913257  1
  H  H72  1  0.23825805  0.15004358  0.00141358  1
  C  C73  1  0.24647327  0.47248918  0.19358624  1
  C  C74  1  0.23630372  0.35486374  0.01303701  1
  C  C75  1  0.23609776  0.04301556  0.10308290  1
  O  O76  1  0.04295537  0.47148749  0.22519741  1
  H  H77  1  0.05305198  0.48293291  0.17566074  1
  Zn  Zn78  1  0.00736010  0.07342317  0.12992277  1
  H  H79  1  0.23673073  0.14950490  0.13251482  1
  C  C80  1  0.00370018  0.48684001  0.06740560  1
  O  O81  1  0.25066359  0.05657815  0.17193653  1
  C  C82  1  0.25133705  0.26960379  0.23367625  1
  C  C83  1  0.29893374  0.19234138  0.20287302  1
  H  H84  1  0.42612882  0.01523895  0.24547646  1
  C  C85  1  0.47483248  0.26147839  0.22022053  1
  C  C86  1  0.41214514  0.21671649  0.10578391  1
  C  C87  1  0.25773075  0.49435290  0.06463339  1
  O  O88  1  0.45480071  0.40875421  0.04363543  1
  C  C89  1  0.44379876  0.34887904  0.03015688  1
  C  C90  1  0.33411519  0.28824326  0.23870146  1
  C  C91  1  0.29640973  0.48638342  0.19676484  1
  H  H92  1  0.45805274  0.14605375  0.23885790  1
  O  O93  1  0.32743792  0.43988780  0.19675796  1
  C  C94  1  0.31410008  0.48015930  0.12539254  1
  H  H95  1  0.32193312  0.41630664  0.11951749  1
  H  H96  1  0.36966040  0.26799455  0.23641677  1
  C  C97  1  0.39316650  0.08917491  0.19248875  1
  O  O98  1  0.40608972  0.45055012  0.11136960  1
  H  H99  1  0.33421823  0.09714248  0.11590546  1
  O  O100  1  0.31737484  0.30988292  0.07504703  1
  C  C101  1  0.37149029  0.10562419  0.05494414  1
  O  O102  1  0.39065466  0.06342228  0.17140977  1
  C  C103  1  0.32817456  0.06068135  0.04998481  1
  Zn  Zn104  1  0.46289092  0.31569055  0.18573654  1
  H  H105  1  0.43340503  0.19751000  0.00867228  1
  O  O106  1  0.39531858  0.11277744  0.21392835  1
  C  C107  1  0.41499378  0.07008988  0.05295547  1
  C  C108  1  0.31168233  0.38073294  0.06980446  1
  H  H109  1  0.30984031  0.22547568  0.18498808  1
  H  H110  1  0.44669736  0.10354437  0.05690333  1
  C  C111  1  0.47975778  0.28730985  0.02618799  1
  Zn  Zn112  1  0.34963957  0.40135797  0.01046801  1
  C  C113  1  0.32826689  0.03469773  0.11047418  1
  C  C114  1  0.29796671  0.25095490  0.22648567  1
  C  C115  1  0.47298487  0.20732602  0.24025340  1
  C  C116  1  0.26593952  0.41411381  0.07415967  1
  O  O117  1  0.44530439  0.19476362  0.10097522  1
  C  C118  1  0.27838594  0.08932715  0.04663289  1
  H  H119  1  0.25498246  0.41063480  0.00903633  1
  H  H120  1  0.26271573  0.34692182  0.18884549  1
  O  O121  1  0.40481071  0.33151851  0.02273704  1
  H  H122  1  0.32454771  0.14326477  0.20391799  1
  H  H123  1  0.48398943  0.03821723  0.01628231  1
  Zn  Zn124  1  0.41039729  0.44862875  0.07131788  1
  Zn  Zn125  1  0.29276661  0.20170545  0.05912588  1
  H  H126  1  0.37039376  0.16696246  0.06204041  1
  O  O127  1  0.34231143  0.41926464  0.05545367  1
  C  C128  1  0.46960413  0.21240978  0.01592849  1
  C  C129  1  0.49633997  0.33730398  0.22772387  1
  C  C130  1  0.25283543  0.28007020  0.00354684  1
  C  C131  1  0.49678235  0.40569584  0.20855977  1
  C  C132  1  0.28343791  0.00414484  0.10559637  1
  H  H133  1  0.40086932  0.00346351  0.11624621  1
  C  C134  1  0.14374207  0.33772416  0.28600048  1
  C  C135  1  0.11851116  0.26816182  0.29961287  1
  H  H136  1  0.14278784  0.21947994  0.30466862  1
  C  C137  1  0.17079140  0.39288513  0.29755671  1
  H  H138  1  0.09929606  0.29013972  0.31677116  1
  C  C139  1  0.06408705  0.39628407  0.32734956  1
  C  C140  1  0.07667790  0.35150959  0.35000175  1
  H  H141  1  0.05702457  0.30041556  0.35749239  1
  H  H142  1  0.18367471  0.37786404  0.31688912  1
  C  C143  1  0.08764315  0.24212415  0.27617911  1
  C  C144  1  0.11618444  0.37777375  0.36376916  1
  H  H145  1  0.19674246  0.15941112  0.27029245  1
  C  C146  1  0.22102513  0.12145137  0.28193280  1
  C  C147  1  0.21104627  0.03803431  0.28739628  1
  C  C148  1  0.20136756  0.24401201  0.36055518  1
  C  C149  1  0.16068090  0.19274050  0.36563912  1
  H  H150  1  0.12745210  0.22039221  0.36120689  1
  C  C151  1  0.16150208  0.11469963  0.37666312  1
  H  H152  1  0.12268418  0.34031265  0.38096824  1
  H  H153  1  0.07325360  0.40999083  0.40827784  1
  C  C154  1  0.05779521  0.20290520  0.41036978  1
  C  C155  1  0.19879935  0.40461673  0.45709537  1
  H  H156  1  0.15597534  0.29473449  0.42331066  1
  C  C157  1  0.15509203  0.04825049  0.44003007  1
  C  C158  1  0.08556729  0.13743207  0.42013643  1
  C  C159  1  0.13024089  0.17473195  0.42741195  1
  C  C160  1  0.16823698  0.12767515  0.43782968  1
  C  C161  1  0.08296908  0.27941724  0.41326484  1
  C  C162  1  0.12806926  0.25531750  0.42125140  1
  H  H163  1  0.20164311  0.15180214  0.44376594  1
  C  C164  1  0.05532897  0.40812689  0.46560802  1
  H  H165  1  0.12054246  0.34648788  0.45439679  1
  C  C166  1  0.22573944  0.37155602  0.43682372  1
  H  H167  1  0.10803895  0.17394425  0.47008428  1
  C  C168  1  0.05835817  0.34980652  0.40553729  1
  O  O169  1  0.19219361  0.41276290  0.39016400  1
  C  C170  1  0.08853337  0.34799953  0.46629768  1
  C  C171  1  0.19064137  0.37117792  0.48212874  1
  C  C172  1  0.07736574  0.05332789  0.42498272  1
  C  C173  1  0.07607847  0.28334824  0.48301275  1
  C  C174  1  0.21288597  0.28923820  0.48493583  1
  C  C175  1  0.10466413  0.20898335  0.48856023  1
  C  C176  1  0.05834824  0.18043367  0.27916231  1
  H  H177  1  0.05726112  0.14333068  0.29759350  1
  H  H178  1  0.12737242  0.08851435  0.38347060  1
  C  C179  1  0.19478941  0.04732246  0.38067488  1
  H  H180  1  0.02191886  0.10965427  0.48324564  1
  C  C181  1  0.14296795  0.44541221  0.35712131  1
  C  C182  1  0.02693712  0.38636265  0.30874761  1
  C  C183  1  0.23527151  0.42593715  0.41068117  1
  C  C184  1  0.19073158  0.45408222  0.28136148  1
  C  C185  1  0.01143914  0.40965482  0.47870281  1
  C  C186  1  0.01373162  0.19670581  0.39741671  1
  C  C187  1  0.24691953  0.25334153  0.36040083  1
  C  C188  1  0.12959312  0.34392558  0.25867008  1
  O  O189  1  0.13585706  0.03745455  0.26343073  1
  O  O190  1  0.05877245  0.16787990  0.33975998  1
  C  C191  1  0.05878223  0.11396301  0.35367139  1
  C  C192  1  0.01556822  0.34055973  0.39452560  1
  Zn  Zn193  1  0.24490796  0.13533942  0.36871817  1
  H  H194  1  0.04369541  0.02602726  0.42071626  1
  C  C195  1  0.17503456  0.46009818  0.25513932  1
  O  O196  1  0.05729382  0.05605706  0.36595222  1
  H  H197  1  0.20657259  0.34946680  0.25630876  1
  C  C198  1  0.24155497  0.33243594  0.25146060  1
  O  O199  1  0.11050267  0.47767669  0.44110212  1
  C  C200  1  0.07109616  0.47953087  0.45001391  1
  H  H201  1  0.01138532  0.25604050  0.31542466  1
  C  C202  1  0.23741321  0.25101394  0.46415033  1
  C  C203  1  0.24218037  0.28865516  0.44013311  1
  C  C204  1  0.09315584  0.46646498  0.32112794  1
  C  C205  1  0.18322098  0.46688028  0.37263300  1
  H  H206  1  0.14013327  0.22904337  0.49596957  1
  C  C207  1  0.11424656  0.00665450  0.43423194  1
  O  O208  1  0.23619816  0.49772482  0.31612018  1
  O  O209  1  0.01202698  0.47891444  0.38332797  1
  H  H210  1  0.09528109  0.48172627  0.27922529  1
  C  C211  1  0.03265759  0.28416771  0.49637685  1
  C  C212  1  0.02313362  0.16402479  0.25904604  1
  C  C213  1  0.23155974  0.01641520  0.49415934  1
  C  C214  1  0.02277251  0.46402815  0.29442383  1
  C  C215  1  0.23821551  0.01647367  0.37796935  1
  C  C216  1  0.09185588  0.29013183  0.25234106  1
  C  C217  1  0.16790028  0.01013529  0.27490397  1
  C  C218  1  0.12985423  0.49234991  0.33573647  1
  C  C219  1  0.00410366  0.01043651  0.46109407  1
  H  H220  1  0.25275055  0.28624047  0.29131871  1
  H  H221  1  0.26807471  0.30838147  0.35882039  1
  C  C222  1  0.26045314  0.15170718  0.29262342  1
  H  H223  1  0.25325208  0.19187463  0.46819562  1
  H  H224  1  0.25899985  0.25905038  0.42353785  1
  Zn  Zn225  1  0.49719046  0.15792422  0.37818046  1
  C  C226  1  0.37393416  0.23479402  0.48110782  1
  C  C227  1  0.34294278  0.31007800  0.32158565  1
  O  O228  1  0.36497310  0.24514708  0.45910352  1
  C  C229  1  0.49342034  0.16742099  0.42195407  1
  O  O230  1  0.48248585  0.30071777  0.44307141  1
  C  C231  1  0.31697673  0.24586943  0.31190381  1
  C  C232  1  0.27858111  0.37233609  0.26265509  1
  C  C233  1  0.28456702  0.02543337  0.31277678  1
  Zn  Zn234  1  0.44920252  0.14331072  0.45493731  1
  C  C235  1  0.44579871  0.16596862  0.40960063  1
  Zn  Zn236  1  0.32950386  0.47548695  0.43469644  1
  C  C237  1  0.38361284  0.21907418  0.35073791  1
  O  O238  1  0.42871769  0.36366174  0.36932889  1
  O  O239  1  0.49897628  0.01747630  0.42317329  1
  H  H240  1  0.26081010  0.39731161  0.39780249  1
  O  O241  1  0.36499231  0.45825883  0.28088277  1
  O  O242  1  0.28281501  0.05932695  0.43800354  1
  C  C243  1  0.36352488  0.40292177  0.26517295  1
  O  O244  1  0.38268762  0.43561827  0.34600660  1
  H  H245  1  0.41153020  0.21020866  0.36520637  1
  H  H246  1  0.42658044  0.40268885  0.26856181  1
  H  H247  1  0.46180881  0.43943078  0.33446511  1
  C  C248  1  0.32566847  0.35224174  0.25661708  1
  O  O249  1  0.40489252  0.37234748  0.25610452  1
  C  C250  1  0.39572728  0.36792584  0.35368332  1
  H  H251  1  0.27203891  0.42286280  0.27595511  1
  O  O252  1  0.45558580  0.01622397  0.48518973  1
  H  H253  1  0.36519307  0.09326591  0.34772395  1
  O  O254  1  0.39447031  0.41814189  0.42954405  1
  C  C255  1  0.47768005  0.49596672  0.34001110  1
  C  C256  1  0.49902331  0.24488701  0.26253335  1
  C  C257  1  0.27325966  0.04546552  0.48524133  1
  O  O258  1  0.41408134  0.21304314  0.40597022  1
  H  H259  1  0.41211491  0.40502421  0.44620156  1
  C  C260  1  0.28128919  0.23951228  0.29014613  1
  C  C261  1  0.37164503  0.29907836  0.34251347  1
  H  H262  1  0.32911066  0.10030609  0.46083502  1
  C  C263  1  0.29504149  0.06442811  0.45991291  1
  H  H264  1  0.33675103  0.37205202  0.31476304  1
  Zn  Zn265  1  0.43789736  0.34480414  0.41049839  1
  C  C266  1  0.35964465  0.15393190  0.34146174  1
  H  H267  1  0.30545769  0.24596610  0.27344041  1
  C  C268  1  0.29057885  0.11045303  0.30989705  1
  C  C269  1  0.32363391  0.16700556  0.32346454  1
  C  C270  1  0.25996191  0.49964126  0.42102091  1
  C  C271  1  0.08486882  0.10624801  0.52597733  1
  C  C272  1  0.19954360  0.28093938  0.59522078  1
  C  C273  1  0.19539508  0.28009993  0.56576057  1
  H  H274  1  0.11363542  0.28122647  0.56291564  1
  H  H275  1  0.16227413  0.39896784  0.56314949  1
  C  C276  1  0.17545549  0.34303450  0.55238544  1
  C  C277  1  0.17887925  0.33668861  0.52506221  1
  H  H278  1  0.09545064  0.13316367  0.59730267  1
  C  C279  1  0.06582746  0.25435358  0.59709746  1
  C  C280  1  0.05383090  0.36018090  0.56642422  1
  C  C281  1  0.07906256  0.18355091  0.60797982  1
  C  C282  1  0.20821863  0.20906432  0.55411694  1
  O  O283  1  0.19244621  0.34295808  0.60607936  1
  O  O284  1  0.20179750  0.21541964  0.60923955  1
  C  C285  1  0.05119338  0.41957158  0.54765049  1
  C  C286  1  0.07499962  0.27639147  0.56836870  1
  C  C287  1  0.05044160  0.08477369  0.54363160  1
  H  H288  1  0.06731673  0.41000245  0.52858201  1
  C  C289  1  0.03551183  0.38246312  0.59133013  1
  C  C290  1  0.20296440  0.26966997  0.51178913  1
  C  C291  1  0.21241411  0.19964014  0.52724589  1
  H  H292  1  0.22316758  0.16390078  0.56733406  1
  H  H293  1  0.06157246  0.23780859  0.55281237  1
  H  H294  1  0.11314378  0.06566061  0.52352299  1
  C  C295  1  0.03250749  0.21362721  0.51388459  1
  C  C296  1  0.04537405  0.32003195  0.61135970  1
  O  O297  1  0.10733865  0.04808967  0.63641122  1
  C  C298  1  0.07299136  0.17604968  0.63520491  1
  C  C299  1  0.03936693  0.30959153  0.63862890  1
  H  H300  1  0.13189848  0.37774849  0.64078175  1
  C  C301  1  0.08971010  0.10337298  0.64938113  1
  O  O302  1  0.08280284  0.10256466  0.67357277  1
  C  C303  1  0.07075130  0.41868314  0.68486816  1
  C  C304  1  0.07584686  0.33809741  0.72584412  1
  C  C305  1  0.10816399  0.35973555  0.68113271  1
  C  C306  1  0.10752352  0.30772554  0.70369481  1
  C  C307  1  0.16201671  0.22427260  0.68181646  1
  C  C308  1  0.13473788  0.24290053  0.70431068  1
  O  O309  1  0.18514407  0.10229652  0.70147168  1
  H  H310  1  0.13329237  0.20189141  0.72062984  1
  C  C311  1  0.18919043  0.14779815  0.68302429  1
  C  C312  1  0.16396538  0.27581373  0.66055448  1
  C  C313  1  0.13593882  0.34384777  0.65916070  1
  H  H314  1  0.18272282  0.25258708  0.64384002  1
  C  C315  1  0.05046002  0.40531747  0.71055348  1
  C  C316  1  0.05577421  0.23903888  0.64981546  1
  O  O317  1  0.21661480  0.13103401  0.66422334  1
  H  H318  1  0.05341655  0.29071092  0.73312745  1
  H  H319  1  0.19627883  0.35324721  0.72053792  1
  H  H320  1  0.11093602  0.47106886  0.72154456  1
  C  C321  1  0.17095735  0.39634796  0.50656242  1
  H  H322  1  0.19237851  0.45694392  0.60010593  1
  H  H323  1  0.05408985  0.23611531  0.67095430  1
  C  C324  1  0.01103789  0.12889910  0.54909196  1
  Zn  Zn325  1  0.11861133  0.02302581  0.69999280  1
  C  C326  1  0.18813540  0.36873437  0.74112258  1
  C  C327  1  0.07597321  0.17068254  0.51076024  1
  H  H328  1  0.15465868  0.45644081  0.50998733  1
  H  H329  1  0.09388037  0.35816882  0.74326410  1
  H  H330  1  0.03765365  0.08504855  0.74649187  1
  C  C331  1  0.06270305  0.00739551  0.55876346  1
  C  C332  1  0.23531131  0.47368727  0.67298073  1
  C  C333  1  0.22496800  0.01762832  0.52077987  1
  C  C334  1  0.01174977  0.45467307  0.59570864  1
  H  H335  1  0.20813785  0.48191243  0.65894071  1
  C  C336  1  0.05339693  0.47577605  0.66744591  1
  H  H337  1  0.02722269  0.35917939  0.65139731  1
  C  C338  1  0.16386181  0.43750311  0.74838433  1
  C  C339  1  0.01208886  0.44827491  0.71811531  1
  H  H340  1  0.22604186  0.14428107  0.51843154  1
  C  C341  1  0.00001238  0.19573835  0.53402434  1
  O  O342  1  0.24148928  0.23299197  0.73245244  1
  C  C343  1  0.03135920  0.49294606  0.55357236  1
  C  C344  1  0.23353732  0.01927842  0.57554703  1
  C  C345  1  0.23686956  0.02430149  0.60434002  1
  O  O346  1  0.04752169  0.00529159  0.58166110  1
  H  H347  1  0.07295529  0.48903737  0.64953024  1
  Zn  Zn348  1  0.41083991  0.21346292  0.59298025  1
  H  H349  1  0.47219549  0.35898072  0.74878046  1
  H  H350  1  0.25015818  0.41470585  0.58009742  1
  Zn  Zn351  1  0.25744063  0.17727068  0.63147310  1
  C  C352  1  0.41777846  0.19447409  0.70223708  1
  O  O353  1  0.49955384  0.19845886  0.52088975  1
  H  H354  1  0.49082142  0.19951392  0.65902044  1
  O  O355  1  0.38836807  0.02247097  0.64628408  1
  C  C356  1  0.37448126  0.14319653  0.74129729  1
  C  C357  1  0.31076976  0.43922372  0.69038685  1
  H  H358  1  0.48578984  0.24188273  0.53001949  1
  H  H359  1  0.39042763  0.30571918  0.67266251  1
  C  C360  1  0.27137271  0.04587259  0.56001757  1
  C  C361  1  0.35182344  0.39377913  0.69180840  1
  O  O362  1  0.31226964  0.24504463  0.61271142  1
  H  H363  1  0.46607765  0.49687329  0.65928088  1
  C  C364  1  0.41442897  0.39526295  0.58936305  1
  H  H365  1  0.26525225  0.36739789  0.63220399  1
  C  C366  1  0.34080550  0.26520746  0.63042070  1
  C  C367  1  0.27628103  0.42644865  0.66970584  1
  H  H368  1  0.39269613  0.18237686  0.54190085  1
  O  O369  1  0.35132037  0.09606839  0.72867964  1
  H  H370  1  0.32754653  0.34882524  0.57111229  1
  C  C371  1  0.35801946  0.33646533  0.67246905  1
  C  C372  1  0.28751980  0.37157893  0.64967043  1
  C  C373  1  0.42536137  0.26128619  0.74695048  1
  H  H374  1  0.33626899  0.04143233  0.51309480  1
  O  O375  1  0.27021698  0.05701901  0.61611053  1
  O  O376  1  0.47772153  0.17835735  0.60411943  1
  C  C377  1  0.45732474  0.31217479  0.73587624  1
  C  C378  1  0.30071678  0.06947750  0.51164930  1
  C  C379  1  0.36669035  0.43276489  0.59362929  1
  O  O380  1  0.39858119  0.15396969  0.55741402  1
  O  O381  1  0.38351121  0.22388022  0.50330800  1
  C  C382  1  0.46322055  0.48851121  0.52271139  1
  C  C383  1  0.28284219  0.43804813  0.58807463  1
  C  C384  1  0.26751681  0.04348033  0.53333600  1
  C  C385  1  0.49225099  0.35909423  0.69010985  1
  C  C386  1  0.32619112  0.40182662  0.58255222  1
  C  C387  1  0.32715951  0.32660927  0.65108967  1
  C  C388  1  0.40954424  0.20023198  0.72948403  1
  C  C389  1  0.46830635  0.25218399  0.66197610  1
  C  C390  1  0.49443059  0.33222109  0.66391324  1
  O  O391  1  0.41487852  0.33413429  0.57604657  1
  O  O392  1  0.38112821  0.23877154  0.63108612  1
  O  O393  1  0.45038153  0.42329563  0.59882171  1
  C  C394  1  0.46729708  0.30640834  0.70832341  1
  H  H395  1  0.39840935  0.14852309  0.69165690  1
  H  H396  1  0.44200353  0.24866991  0.64601790  1
  H  H397  1  0.30197488  0.07174377  0.56978294  1
  H  H398  1  0.37518305  0.40333178  0.70880139  1
  H  H399  1  0.30402474  0.13357533  0.50989347  1
  Zn  Zn400  1  0.45737118  0.11995685  0.53859408  1
  O  O401  1  0.44397322  0.00468151  0.52690576  1
  C  C402  1  0.44988437  0.24654879  0.69064744  1
  H  H403  1  0.45484084  0.48029560  0.54380538  1
  C  C404  1  0.04684036  0.40111347  0.79845641  1
  C  C405  1  0.19954639  0.34209932  0.78762669  1
  C  C406  1  0.17825264  0.41459140  0.79485796  1
  H  H407  1  0.07944387  0.41235843  0.80956314  1
  H  H408  1  0.17835947  0.43369000  0.81504778  1
  C  C409  1  0.03532038  0.33231792  0.78423504  1
  C  C410  1  0.15862789  0.46272909  0.77452866  1
  C  C411  1  0.20189887  0.22025428  0.85390358  1
  C  C412  1  0.10774929  0.23737450  0.79119968  1
  H  H413  1  0.12998793  0.27794167  0.80101500  1
  H  H414  1  0.16350822  0.15139654  0.78857784  1
  C  C415  1  0.12664872  0.16397488  0.78405859  1
  C  C416  1  0.06380774  0.26025388  0.78086761  1
  C  C417  1  0.21396236  0.08741823  0.83519023  1
  H  H418  1  0.04511629  0.10493500  0.80257246  1
  H  H419  1  0.21181282  0.28007997  0.85848495  1
  C  C420  1  0.15031973  0.44164766  0.85336667  1
  C  C421  1  0.17490461  0.05349667  0.84707531  1
  C  C422  1  0.14791135  0.10653260  0.86269825  1
  C  C423  1  0.16037823  0.19023345  0.86399145  1
  C  C424  1  0.10173030  0.09686507  0.87554845  1
  H  H425  1  0.04462061  0.24113560  0.82701401  1
  C  C426  1  0.10115461  0.11190682  0.76788449  1
  H  H427  1  0.10499244  0.28124363  0.87126952  1
  H  H428  1  0.22794333  0.09691969  0.88249205  1
  C  C429  1  0.12515247  0.23359390  0.88105035  1
  C  C430  1  0.03095735  0.03362546  0.89266007  1
  C  C431  1  0.08732861  0.16934421  0.88687862  1
  H  H432  1  0.03882919  0.23723337  0.90649724  1
  C  C433  1  0.01867228  0.27912615  0.96570336  1
  C  C434  1  0.04489222  0.17623691  0.89961320  1
  H  H435  1  0.02273607  0.39548561  0.98551990  1
  H  H436  1  0.13817590  0.25977302  0.90066489  1
  C  C437  1  0.01936926  0.33628391  0.94517166  1
  H  H438  1  0.15767628  0.42969359  0.90901957  1
  C  C439  1  0.05995934  0.35612414  0.93289791  1
  H  H440  1  0.05841749  0.39683359  0.91547010  1
  C  C441  1  0.05868893  0.23536173  0.97181246  1
  C  C442  1  0.17427394  0.37939425  0.91599532  1
  C  C443  1  0.15217885  0.32878611  0.93388063  1
  C  C444  1  0.10249091  0.31938577  0.94096761  1
  C  C445  1  0.17804710  0.26406623  0.94493010  1
  C  C446  1  0.14823400  0.21897838  0.96480722  1
  C  C447  1  0.09886415  0.25499517  0.95926742  1
  H  H448  1  0.15023185  0.15324925  0.96241066  1
  H  H449  1  0.15720593  0.23398254  0.98478875  1
  H  H450  1  0.13512697  0.43063693  0.98280211  1
  C  C451  1  0.21979068  0.36484921  0.90918829  1
  C  C452  1  0.11529183  0.03614846  0.96259264  1
  H  H453  1  0.09733346  0.05566070  0.94549326  1
  H  H454  1  0.15871598  0.09768604  0.91285097  1
  C  C455  1  0.19315923  0.07313951  0.91857944  1
  C  C456  1  0.23090628  0.07309802  0.90140011  1
  H  H457  1  0.11748848  0.46134498  0.94005412  1
  H  H458  1  0.21468901  0.30147684  0.80243277  1
  C  C459  1  0.01563224  0.11033763  0.90192292  1
  C  C460  1  0.22316896  0.24656737  0.93717867  1
  C  C461  1  0.22772379  0.16651248  0.83888675  1
  C  C462  1  0.07345184  0.02652678  0.87993390  1
  H  H463  1  0.23737047  0.41427659  0.89878392  1
  C  C464  1  0.01218205  0.20517411  0.82676119  1
  H  H465  1  0.23497022  0.04343397  0.82460695  1
  C  C466  1  0.03881183  0.20413591  0.76452592  1
  C  C467  1  0.12197805  0.03593904  0.75834792  1
  C  C468  1  0.01393227  0.12234149  0.81317586  1
  C  C469  1  0.24468311  0.30165150  0.92031161  1
  H  H470  1  0.01447016  0.48344598  0.94271417  1
  C  C471  1  0.20556513  0.32522509  0.76120745  1
  O  O472  1  0.18788617  0.43789465  0.86252316  1
  O  O473  1  0.21389519  0.48819915  0.98037896  1
  H  H474  1  0.05491607  0.19013414  0.98658656  1
  C  C475  1  0.19873346  0.03718599  0.94417436  1
  C  C476  1  0.16435927  0.02916568  0.96518233  1
  H  H477  1  0.05300355  0.03024323  0.98409789  1
  C  C478  1  0.09030059  0.01753944  0.98562293  1
  C  C479  1  0.24369649  0.01787122  0.95432083  1
  C  C480  1  0.01037897  0.45413328  0.80141716  1
  C  C481  1  0.23255857  0.24909550  0.75495173  1
  C  C482  1  0.05797380  0.13287099  0.75675890  1
  O  O483  1  0.15790151  0.01271065  0.76928232  1
  C  C484  1  0.12310547  0.46812939  0.99814020  1
  O  O485  1  0.23981858  0.20015035  0.77312854  1
  H  H486  1  0.24220207  0.19617401  0.94600381  1
  O  O487  1  0.11348134  0.44674711  0.84465931  1
  H  H488  1  0.49969593  0.06381913  0.98314278  1
  O  O489  1  0.31964455  0.24371220  0.92278250  1
  C  C490  1  0.46566315  0.07215286  0.84498802  1
  C  C491  1  0.27293871  0.19008781  0.82669283  1
  O  O492  1  0.38377385  0.20687988  0.86528302  1
  C  C493  1  0.36130099  0.36462504  0.80742572  1
  C  C494  1  0.30456441  0.44180213  0.78304503  1
  C  C495  1  0.47567096  0.45563039  0.97177804  1
  Zn  Zn496  1  0.29161896  0.11305603  0.77024341  1
  O  O497  1  0.37386451  0.33176709  0.78800124  1
  O  O498  1  0.36278420  0.14459293  0.76521060  1
  Zn  Zn499  1  0.34022764  0.29880448  0.85856304  1
  O  O500  1  0.44652165  0.16787609  0.91649202  1
  C  C501  1  0.27467889  0.04815589  0.91108908  1
  H  H502  1  0.41481293  0.44942859  0.77341297  1
  Zn  Zn503  1  0.36342522  0.12001840  0.84280148  1
  O  O504  1  0.30934553  0.33753549  0.89448311  1
  C  C505  1  0.46161336  0.49424598  0.84594377  1
  C  C506  1  0.28021342  0.01827676  0.93697002  1
  C  C507  1  0.32398380  0.42944536  0.80774593  1
  O  O508  1  0.38088715  0.34939595  0.82919727  1
  O  O509  1  0.35386367  0.06390070  0.90308493  1
  H  H510  1  0.47340229  0.43799206  0.85402988  1
  O  O511  1  0.31540391  0.33176620  0.98051996  1
  O  O512  1  0.40944714  0.45008940  0.89309767  1
  O  O513  1  0.31149716  0.04720906  0.86862073  1
  H  H514  1  0.41492564  0.26306585  0.76797451  1
  O  O515  1  0.46684946  0.27881969  0.89752814  1
  O  O516  1  0.30673524  0.20367754  0.97797960  1
  Zn  Zn517  1  0.46055471  0.38727202  0.91740940  1
  O  O518  1  0.49155666  0.29783615  0.79214450  1
  O  O519  1  0.48729750  0.31329830  0.83392585  1
  C  C520  1  0.47571869  0.22169979  0.91374756  1
  H  H521  1  0.31428884  0.40532077  0.76624212  1
  C  C522  1  0.31576194  0.47107953  0.83135856  1
  C  C523  1  0.29464062  0.26828464  0.98620963  1
  O  O524  1  0.30072593  0.14222496  0.81556214  1
  H  H525  1  0.33276124  0.45977553  0.85009838  1
  O  O526  1  0.45588293  0.40710976  0.95810740  1
  Zn  Zn527  1  0.44524570  0.24290353  0.85699298  1
  O  O528  1  0.28439847  0.25885262  0.83227998  1
  C  C529  1  0.29553575  0.29657925  0.91347131  1
  Zn  Zn530  1  0.37732566  0.18290871  0.90392464  1
  O  O531  1  0.42917924  0.06760379  0.83148917  1
  C  C532  1  0.31660863  0.04694820  0.89239965  1
  O  O533  1  0.48307583  0.13646957  0.85145517  1
  H  H534  1  0.25753674  0.03489524  0.99715345  1
  H  H535  1  0.13327957  0.62693668  0.08119530  1
  C  C536  1  0.11377192  0.57898723  0.09015765  1
  C  C537  1  0.06935873  0.58727678  0.10042263  1
  C  C538  1  0.16141951  0.79259239  0.04130222  1
  H  H539  1  0.15095769  0.82415621  0.02318684  1
  H  H540  1  0.05068501  0.64517039  0.09645968  1
  H  H541  1  0.15705158  0.63314386  0.03540342  1
  C  C542  1  0.14365005  0.75434168  0.08789811  1
  C  C543  1  0.13326146  0.78880852  0.06281272  1
  Zn  Zn544  1  0.06785449  0.82453162  0.06768869  1
  H  H545  1  0.12021040  0.76211070  0.10554740  1
  C  C546  1  0.20818687  0.76214058  0.04539100  1
  C  C547  1  0.18858471  0.71865186  0.09050968  1
  H  H548  1  0.07508003  0.62060329  0.05214171  1
  C  C549  1  0.08908154  0.57941394  0.03735460  1
  H  H550  1  0.20184272  0.69122064  0.10822367  1
  H  H551  1  0.17579306  0.95916407  0.02820314  1
  C  C552  1  0.13447477  0.58601132  0.02834557  1
  O  O553  1  0.09389643  0.95021449  0.05295361  1
  C  C554  1  0.22129684  0.72457696  0.06956482  1
  H  H555  1  0.20205429  0.58027125  0.06147263  1
  H  H556  1  0.21378809  0.84657465  0.09104636  1
  C  C557  1  0.21419271  0.52367887  0.06945236  1
  H  H558  1  0.09661702  0.62605652  0.13801083  1
  C  C559  1  0.16839047  0.58908771  0.13704590  1
  C  C560  1  0.13325422  0.64349408  0.14112220  1
  O  O561  1  0.06539924  0.74034112  0.14616454  1
  C  C562  1  0.10288375  0.77603558  0.14967449  1
  O  O563  1  0.10823855  0.84642863  0.15488879  1
  Zn  Zn564  1  0.05850272  0.93815168  0.17411791  1
  C  C565  1  0.14408656  0.72161201  0.14805994  1
  C  C566  1  0.18826305  0.75718972  0.15005748  1
  O  O567  1  0.07785585  0.87184996  0.21574884  1
  H  H568  1  0.19244626  0.81971269  0.15495512  1
  C  C569  1  0.21391871  0.61750167  0.14260154  1
  H  H570  1  0.22758245  0.59331478  0.19783219  1
  H  H571  1  0.14104733  0.56228658  0.19024501  1
  C  C572  1  0.06479634  0.51885751  0.23542231  1
  C  C573  1  0.22246384  0.69954488  0.14978619  1
  O  O574  1  0.01813312  0.92893689  0.23136125  1
  C  C575  1  0.05309283  0.88479893  0.23419874  1
  C  C576  1  0.05276028  0.52299277  0.11498597  1
  C  C577  1  0.20799457  0.97637043  0.09598641  1
  Zn  Zn578  1  0.00708529  0.77764784  0.16847136  1
  C  C579  1  0.21394461  0.53510884  0.19304076  1
  C  C580  1  0.23552841  0.91575520  0.24543371  1
  C  C581  1  0.15923208  0.97948500  0.01037959  1
  C  C582  1  0.15005719  0.53008203  0.00836873  1
  H  H583  1  0.16196854  0.52484553  0.13184993  1
  H  H584  1  0.09546906  0.75216694  0.24287524  1
  C  C585  1  0.00555123  0.54715286  0.12397574  1
  C  C586  1  0.07986562  0.98282151  0.03278025  1
  O  O587  1  0.08304635  0.57406604  0.24437996  1
  H  H588  1  0.19043955  0.50920568  0.24429278  1
  H  H589  1  0.23435110  0.71676278  0.00749155  1
  C  C590  1  0.16828095  0.51625048  0.18761284  1
  O  O591  1  0.00011034  0.83353523  0.08115024  1
  C  C592  1  0.23071142  0.90337200  0.09508574  1
  C  C593  1  0.06174384  0.51314264  0.02758668  1
  C  C594  1  0.24590008  0.75422136  0.02434521  1
  H  H595  1  0.01915155  0.52658514  0.08025967  1
  C  C596  1  0.13570433  0.50336701  0.09349781  1
  C  C597  1  0.11025076  0.99641540  0.00960173  1
  O  O598  1  0.22429865  0.59014074  0.00384055  1
  O  O599  1  0.05370255  0.98004328  0.13601646  1
  H  H600  1  0.08329806  0.99623361  0.13334625  1
  C  C601  1  0.29526286  0.63054179  0.14617761  1
  H  H602  1  0.31623267  0.99861348  0.22214551  1
  C  C603  1  0.34163244  0.60561926  0.14402228  1
  C  C604  1  0.30005719  0.66226908  0.08576543  1
  C  C605  1  0.26809252  0.50032064  0.12795551  1
  H  H606  1  0.25725539  0.81296242  0.01589789  1
  C  C607  1  0.43622867  0.84923866  0.04453987  1
  O  O608  1  0.47853845  0.78881222  0.15407193  1
  C  C609  1  0.39900685  0.51624769  0.12242845  1
  H  H610  1  0.36904433  0.64743547  0.14957821  1
  C  C611  1  0.34242040  0.63285144  0.07750791  1
  C  C612  1  0.39381063  0.74213049  0.17926716  1
  O  O613  1  0.42112791  0.68516177  0.17579748  1
  Zn  Zn614  1  0.44599900  0.68715395  0.13349577  1
  H  H615  1  0.32722656  0.67997221  0.19853357  1
  C  C616  1  0.28269105  0.81198973  0.22498685  1
  C  C617  1  0.35014814  0.53421435  0.13057857  1
  C  C618  1  0.33022629  0.80233965  0.21240371  1
  C  C619  1  0.32858523  0.97736940  0.04572819  1
  Zn  Zn620  1  0.40065825  0.79213273  0.21753036  1
  C  C621  1  0.27426500  0.71053214  0.15569059  1
  H  H622  1  0.28307790  0.52919707  0.05429397  1
  H  H623  1  0.28682344  0.65737021  0.10616910  1
  C  C624  1  0.37110612  0.94191659  0.04568207  1
  H  H625  1  0.34426173  0.69612925  0.01357806  1
  O  O626  1  0.42957712  0.56959317  0.12644591  1
  Zn  Zn627  1  0.49839214  0.62860725  0.07833609  1
  C  C628  1  0.40152500  0.84554963  0.11107627  1
  C  C629  1  0.35672351  0.64032768  0.05074258  1
  O  O630  1  0.44018426  0.88121191  0.11543314  1
  O  O631  1  0.42630826  0.57505222  0.05847067  1
  C  C632  1  0.36643506  0.98239766  0.11130203  1
  H  H633  1  0.39089391  0.95204720  0.17803149  1
  C  C634  1  0.34729084  0.73603998  0.19806236  1
  O  O635  1  0.30559659  0.57295173  0.20535592  1
  C  C636  1  0.45703100  0.83998319  0.16881474  1
  O  O637  1  0.41583713  0.62814547  0.01906388  1
  H  H638  1  0.31574865  0.80544625  0.09595501  1
  C  C639  1  0.25834411  0.57737951  0.13830691  1
  C  C640  1  0.27900967  0.91829467  0.10084850  1
  C  C641  1  0.28520269  0.71012377  0.03964649  1
  H  H642  1  0.36745560  0.81765056  0.06245937  1
  C  C643  1  0.30552097  0.94386245  0.21100776  1
  H  H644  1  0.29733245  0.93966122  0.04769167  1
  C  C645  1  0.40163599  0.61242150  0.04181886  1
  C  C646  1  0.27133713  0.69905868  0.06653995  1
  C  C647  1  0.46173564  0.78004844  0.04524693  1
  H  H648  1  0.27083646  0.69018755  0.23348090  1
  C  C649  1  0.32909887  0.68466109  0.03297854  1
  H  H650  1  0.36531749  0.82247350  0.02963598  1
  C  C651  1  0.34834730  0.88235605  0.20757735  1
  H  H652  1  0.28820707  0.96582916  0.19223526  1
  C  C653  1  0.31771015  0.86758737  0.10223853  1
  C  C654  1  0.27220271  0.89507446  0.22730448  1
  H  H655  1  0.34018468  0.56204664  0.20727868  1
  H  H656  1  0.44737526  0.72078847  0.04326586  1
  O  O657  1  0.47522666  0.90186535  0.17695202  1
  C  C658  1  0.36170804  0.90035873  0.10704312  1
  H  H659  1  0.28051651  0.72040111  0.17669721  1
  H  H660  1  0.29069154  0.75823498  0.14543479  1
  C  C661  1  0.41168336  0.82349608  0.17705391  1
  C  C662  1  0.38792110  0.89212054  0.18821338  1
  H  H663  1  0.36540313  0.60699546  0.09328098  1
  C  C664  1  0.25674674  0.74885968  0.23517311  1
  C  C665  1  0.38142677  0.85186335  0.04567711  1
  C  C666  1  0.41339625  0.98657369  0.04732081  1
  C  C667  1  0.45214698  0.92953853  0.04349491  1
  O  O668  1  0.39940062  0.77354729  0.11095846  1
  C  C669  1  0.04493238  0.89015915  0.28381673  1
  C  C670  1  0.06864944  0.77019292  0.30804392  1
  C  C671  1  0.05334530  0.73463643  0.33312390  1
  C  C672  1  0.08711608  0.73250147  0.28522743  1
  H  H673  1  0.10424136  0.67600000  0.28523573  1
  C  C674  1  0.05190847  0.85092687  0.30728311  1
  C  C675  1  0.08393905  0.77379837  0.26249778  1
  C  C676  1  0.06181451  0.84897037  0.26113565  1
  H  H677  1  0.14743433  0.54625400  0.33168634  1
  H  H678  1  0.05727247  0.92498162  0.34361119  1
  H  H679  1  0.05628063  0.60219623  0.33192483  1
  C  C680  1  0.04782963  0.65579464  0.34345935  1
  Zn  Zn681  1  0.16595412  0.88880657  0.28395037  1
  H  H682  1  0.02851141  0.94535652  0.28067183  1
  H  H683  1  0.06934109  0.56863127  0.29539109  1
  O  O684  1  0.20775572  0.77143221  0.30499864  1
  C  C685  1  0.03700120  0.79801310  0.34890334  1
  C  C686  1  0.03588906  0.87879614  0.33449306  1
  H  H687  1  0.17545206  0.73473719  0.45134681  1
  C  C688  1  0.19584898  0.75393797  0.46825132  1
  O  O689  1  0.04408319  0.53789628  0.44959997  1
  O  O690  1  0.10552355  0.71724155  0.47639250  1
  Zn  Zn691  1  0.05539284  0.62655687  0.47996314  1
  O  O692  1  0.04679575  0.88628506  0.46111993  1
  C  C693  1  0.03841927  0.95055468  0.47268474  1
  O  O694  1  0.20595579  0.52815426  0.37127386  1
  H  H695  1  0.11221358  0.94288887  0.43815125  1
  C  C696  1  0.03023000  0.64473088  0.36828582  1
  Zn  Zn697  1  0.18865582  0.51610883  0.44054515  1
  H  H698  1  0.02453657  0.58359700  0.37653163  1
  H  H699  1  0.23908518  0.92941887  0.30108820  1
  H  H700  1  0.20075366  0.72472667  0.26378720  1
  C  C701  1  0.02079309  0.78826134  0.37515339  1
  C  C702  1  0.01810265  0.70984625  0.38464500  1
  O  O703  1  0.23184257  0.70588848  0.33871378  1
  C  C704  1  0.07330662  0.50162806  0.29599163  1
  H  H705  1  0.00019670  0.90899769  0.33324524  1
  C  C706  1  0.17793101  0.76596580  0.49349487  1
  C  C707  1  0.21285608  0.85002404  0.25702300  1
  C  C708  1  0.23851057  0.75312746  0.32010310  1
  C  C709  1  0.24581679  0.99224779  0.30037651  1
  O  O710  1  0.05956062  0.96998946  0.49230297  1
  C  C711  1  0.12712162  0.74993968  0.49456978  1
  C  C712  1  0.22045082  0.76889596  0.25208969  1
  H  H713  1  0.01061650  0.84234884  0.38624361  1
  Zn  Zn714  1  0.00069532  0.79277574  0.46571783  1
  Zn  Zn715  1  0.20814404  0.98665626  0.45884375  1
  C  C716  1  0.23993334  0.78319367  0.46350116  1
  H  H717  1  0.24954665  0.95250763  0.38038768  1
  C  C718  1  0.22729848  0.50755699  0.29245263  1
  H  H719  1  0.22569100  0.97750716  0.25108439  1
  O  O720  1  0.25102608  0.55393256  0.27909216  1
  C  C721  1  0.48681552  0.51454026  0.47064556  1
  H  H722  1  0.46227718  0.92987840  0.33828811  1
  C  C723  1  0.38940092  0.94212976  0.49685032  1
  Zn  Zn724  1  0.26128543  0.58475956  0.34154091  1
  C  C725  1  0.46958369  0.57123664  0.32896759  1
  C  C726  1  0.45126322  0.95192932  0.31881668  1
  O  O727  1  0.32484611  0.57339522  0.32725262  1
  C  C728  1  0.40367301  0.69774193  0.28103535  1
  C  C729  1  0.44244876  0.59466032  0.30689442  1
  C  C730  1  0.33540801  0.87703739  0.29398962  1
  H  H731  1  0.30818090  0.99070046  0.32548270  1
  O  O732  1  0.35144304  0.99333497  0.37761297  1
  O  O733  1  0.40284250  0.89926574  0.39321909  1
  C  C734  1  0.48611429  0.98578957  0.30421825  1
  C  C735  1  0.47645702  0.99919835  0.27726072  1
  C  C736  1  0.48920651  0.71522019  0.33819573  1
  C  C737  1  0.34492031  0.87355384  0.46439818  1
  C  C738  1  0.38203069  0.91930405  0.47085638  1
  H  H739  1  0.30973683  0.75527559  0.35762165  1
  H  H740  1  0.25141825  0.77786373  0.44279857  1
  C  C741  1  0.28450768  0.79454768  0.32031498  1
  C  C742  1  0.49384389  0.54952933  0.44276614  1
  C  C743  1  0.49296104  0.63271904  0.34559212  1
  H  H744  1  0.32731707  0.98445849  0.26731218  1
  C  C745  1  0.35779879  0.84106302  0.33828117  1
  H  H746  1  0.35094111  0.89358523  0.25190249  1
  C  C747  1  0.26301113  0.53485083  0.44808439  1
  C  C748  1  0.37026289  0.69100486  0.44322559  1
  H  H749  1  0.45522199  0.79318199  0.30938635  1
  Zn  Zn750  1  0.32586104  0.56319000  0.28868102  1
  C  C751  1  0.46309123  0.73063740  0.31654904  1
  O  O752  1  0.37524555  0.64601721  0.27143772  1
  C  C753  1  0.43383151  0.63210382  0.41585749  1
  C  C754  1  0.37681596  0.94712114  0.38608093  1
  O  O755  1  0.39036941  0.67714794  0.37269893  1
  C  C756  1  0.40662478  0.93803538  0.30765037  1
  C  C757  1  0.28888272  0.55298234  0.40207848  1
  O  O758  1  0.30488794  0.53215943  0.38131143  1
  Zn  Zn759  1  0.37066908  0.56517397  0.35710144  1
  C  C760  1  0.42973141  0.61703387  0.46569704  1
  C  C761  1  0.44949928  0.55681378  0.48282310  1
  H  H762  1  0.44771968  0.62130627  0.39677125  1
  H  H763  1  0.38009789  0.84535623  0.35556297  1
  H  H764  1  0.33830477  0.72526204  0.44254461  1
  O  O765  1  0.40626166  0.76311297  0.27287644  1
  C  C766  1  0.43342968  0.98944169  0.26486923  1
  C  C767  1  0.37000260  0.70037166  0.39450232  1
  H  H768  1  0.36975257  0.66670679  0.48498480  1
  C  C769  1  0.35044702  0.92779973  0.27029407  1
  C  C770  1  0.39869829  0.95571987  0.28063560  1
  H  H771  1  0.42548670  0.55073994  0.29301615  1
  C  C772  1  0.38971196  0.66681924  0.46739385  1
  C  C773  1  0.36848589  0.88483566  0.31504284  1
  C  C774  1  0.31370235  0.85107205  0.48410103  1
  C  C775  1  0.29568413  0.83330776  0.29681903  1
  H  H776  1  0.27203735  0.83082897  0.28083679  1
  H  H777  1  0.29591401  0.61413816  0.41038423  1
  C  C778  1  0.26831283  0.80799532  0.48443797  1
  C  C779  1  0.43791878  0.67421706  0.30222394  1
  O  O780  1  0.33353302  0.73200968  0.39548887  1
  O  O781  1  0.27116388  0.60037639  0.45540082  1
  C  C782  1  0.31937686  0.79142981  0.34041503  1
  C  C783  1  0.39391338  0.67574287  0.41959158  1
  H  H784  1  0.34061807  0.86711700  0.44319092  1
  H  H785  1  0.40763284  0.94213340  0.45566729  1
  C  C786  1  0.45194072  0.60610568  0.44028545  1
  H  H787  1  0.49545606  0.50660896  0.42651330  1
  H  H788  1  0.14979443  0.68786693  0.56029692  1
  H  H789  1  0.18516394  0.79806194  0.53512098  1
  C  C790  1  0.18088417  0.76844978  0.59061712  1
  C  C791  1  0.18218166  0.71224811  0.56986791  1
  Zn  Zn792  1  0.06289837  0.87293409  0.52380063  1
  O  O793  1  0.10909350  0.76871809  0.51559375  1
  C  C794  1  0.13418567  0.79433010  0.60083943  1
  O  O795  1  0.09688934  0.76527618  0.59414177  1
  C  C796  1  0.20250028  0.79252232  0.51515097  1
  C  C797  1  0.22590729  0.68916306  0.56180572  1
  H  H798  1  0.23205161  0.64460712  0.54688647  1
  H  H799  1  0.15814271  0.96325833  0.52630616  1
  O  O800  1  0.05875096  0.55343917  0.51397520  1
  C  C801  1  0.22056087  0.80089059  0.60331165  1
  H  H802  1  0.21454269  0.84885014  0.61782988  1
  H  H803  1  0.16381400  0.96521492  0.57719904  1
  O  O804  1  0.13256286  0.84510626  0.61887420  1
  Zn  Zn805  1  0.04634683  0.71029784  0.62599974  1
  C  C806  1  0.03324161  0.55862628  0.53372327  1
  O  O807  1  0.02662973  0.90638369  0.63187138  1
  Zn  Zn808  1  0.18687468  0.63125781  0.63030035  1
  O  O809  1  0.12688633  0.73289034  0.67630856  1
  H  H810  1  0.01962115  0.74313821  0.69108524  1
  C  C811  1  0.16184657  0.71783255  0.66326381  1
  C  C812  1  0.20922419  0.72511005  0.65745391  1
  C  C813  1  0.02163535  0.79490695  0.67597695  1
  O  O814  1  0.14134492  0.94265042  0.67500861  1
  Zn  Zn815  1  0.13472907  0.85156458  0.70114203  1
  O  O816  1  0.21015066  0.85564286  0.70721526  1
  H  H817  1  0.11706296  0.66667546  0.72356213  1
  O  O818  1  0.10357442  0.80300030  0.73556178  1
  H  H819  1  0.18387324  0.61576648  0.69821538  1
  O  O820  1  0.05254535  0.84875183  0.68032389  1
  Zn  Zn821  1  0.09247792  0.91520376  0.65008077  1
  C  C822  1  0.21688221  0.59054368  0.70601075  1
  C  C823  1  0.11812708  0.64640577  0.74263752  1
  C  C824  1  0.14530992  0.54662714  0.61254640  1
  C  C825  1  0.24043099  0.54834739  0.61437367  1
  O  O826  1  0.20452936  0.99113974  0.61770647  1
  C  C827  1  0.19367776  0.98827417  0.56394098  1
  O  O828  1  0.10471333  0.54174214  0.61366717  1
  C  C829  1  0.24647654  0.87741244  0.69640459  1
  O  O830  1  0.24967330  0.94830337  0.68788283  1
  C  C831  1  0.00659402  0.51026538  0.57650755  1
  C  C832  1  0.18841000  0.98614766  0.53700966  1
  Zn  Zn833  1  0.19838908  0.98574765  0.65817559  1
  O  O834  1  0.08846637  0.95591917  0.55045321  1
  C  C835  1  0.01502346  0.52125119  0.67544001  1
  O  O836  1  0.00988146  0.61924634  0.53730296  1
  H  H837  1  0.00549516  0.86731804  0.74946959  1
  C  C838  1  0.13117591  0.56843459  0.74817998  1
  C  C839  1  0.19288383  0.51769284  0.60811190  1
  H  H840  1  0.24448766  0.72378173  0.70159284  1
  H  H841  1  0.16271498  0.51660537  0.71194898  1
  C  C842  1  0.00058367  0.84557191  0.62854340  1
  C  C843  1  0.24550099  0.61806317  0.72506631  1
  C  C844  1  0.24447879  0.52660660  0.69344436  1
  C  C845  1  0.24770350  0.81492901  0.51013462  1
  C  C846  1  0.14167083  0.50021151  0.72946378  1
  O  O847  1  0.10589503  0.99739759  0.73950766  1
  C  C848  1  0.43305900  0.99042040  0.50272174  1
  C  C849  1  0.32341811  0.87186619  0.51069253  1
  C  C850  1  0.43565063  0.53963270  0.50894771  1
  C  C851  1  0.29012598  0.50519053  0.70525635  1
  H  H852  1  0.36683638  0.94075503  0.53819743  1
  H  H853  1  0.27176954  0.87634343  0.54447567  1
  C  C854  1  0.25038295  0.69732552  0.64359347  1
  C  C855  1  0.38828271  0.71569905  0.59253744  1
  O  O856  1  0.48237780  0.68519168  0.59295849  1
  C  C857  1  0.42392517  0.53743920  0.74096148  1
  C  C858  1  0.38185768  0.98175810  0.62836865  1
  O  O859  1  0.37931034  0.93777825  0.61132238  1
  H  H860  1  0.40999998  0.75078158  0.60664267  1
  O  O861  1  0.47176704  0.84397681  0.73901875  1
  H  H862  1  0.39755483  0.55656131  0.55177295  1
  H  H863  1  0.41429370  0.79176102  0.73458081  1
  C  C864  1  0.47889027  0.62110345  0.64850495  1
  C  C865  1  0.32560086  0.53310879  0.61556910  1
  H  H866  1  0.43311854  0.85452212  0.66715131  1
  C  C867  1  0.28532383  0.83672821  0.52976495  1
  H  H868  1  0.33143714  0.91470961  0.67602803  1
  H  H869  1  0.31101813  0.58432027  0.54393958  1
  H  H870  1  0.43338314  0.61195698  0.70554911  1
  H  H871  1  0.32112722  0.60074730  0.65190437  1
  H  H872  1  0.38318281  0.53610695  0.67179560  1
  C  C873  1  0.36236358  0.91466439  0.51788585  1
  C  C874  1  0.25921750  0.61891089  0.62898673  1
  H  H875  1  0.30153128  0.62383175  0.69085536  1
  H  H876  1  0.33180022  0.89446125  0.74692829  1
  H  H877  1  0.28014969  0.73865933  0.64365384  1
  C  C878  1  0.27764121  0.74131361  0.69535538  1
  C  C879  1  0.39348197  0.66657661  0.66622741  1
  C  C880  1  0.28554250  0.82324814  0.69114112  1
  H  H881  1  0.34744031  0.52441978  0.73365315  1
  H  H882  1  0.49868446  0.97086047  0.67718726  1
  C  C883  1  0.26353151  0.77662970  0.59481491  1
  C  C884  1  0.31225995  0.68680125  0.68851129  1
  H  H885  1  0.40799230  0.57578520  0.51802074  1
  C  C886  1  0.45841675  0.64126832  0.58013539  1
  C  C887  1  0.28844366  0.61190028  0.73582233  1
  C  C888  1  0.35956858  0.79733211  0.67264540  1
  C  C889  1  0.34242915  0.73658569  0.58878637  1
  C  C890  1  0.40548356  0.58288279  0.66528711  1
  H  H891  1  0.40250548  0.53148932  0.61405554  1
  C  C892  1  0.32484872  0.85277901  0.67871407  1
  C  C893  1  0.40713038  0.65235946  0.57910190  1
  H  H894  1  0.36418650  0.75129678  0.71679520  1
  O  O895  1  0.47458740  0.58309912  0.56745151  1
  H  H896  1  0.33391165  0.66174120  0.62773765  1
  C  C897  1  0.41845924  0.60308589  0.72547380  1
  H  H898  1  0.39811076  0.83887623  0.63691235  1
  C  C899  1  0.45233678  0.55814601  0.65870002  1
  C  C900  1  0.31229357  0.60643971  0.63148660  1
  C  C901  1  0.38323117  0.74726610  0.73540865  1
  C  C902  1  0.31156621  0.54240233  0.72675009  1
  C  C903  1  0.40567007  0.81441376  0.65795211  1
  H  H904  1  0.29791741  0.78223757  0.54047445  1
  C  C905  1  0.46567168  0.69911173  0.64739847  1
  C  C906  1  0.39695382  0.66368306  0.74198530  1
  C  C907  1  0.31371007  0.80120135  0.60187315  1
  C  C908  1  0.42314248  0.72851494  0.65565095  1
  H  H909  1  0.31596810  0.79811470  0.62338494  1
  C  C910  1  0.26730962  0.71483548  0.57433412  1
  C  C911  1  0.33301149  0.61906077  0.55736184  1
  C  C912  1  0.38063743  0.60486885  0.56188462  1
  H  H913  1  0.32123402  0.86418116  0.59464319  1
  C  C914  1  0.31470104  0.68381763  0.57180148  1
  C  C915  1  0.35453913  0.71391786  0.67642099  1
  C  C916  1  0.36893567  0.50061386  0.61021677  1
  C  C917  1  0.28254833  0.50037976  0.60490273  1
  O  O918  1  0.16620357  0.87624286  0.84631122  1
  C  C919  1  0.17668073  0.84633388  0.82628262  1
  C  C920  1  0.12795830  0.59327005  0.79570478  1
  H  H921  1  0.13232002  0.57311158  0.81634917  1
  C  C922  1  0.20528169  0.75127561  0.78964448  1
  C  C923  1  0.19866665  0.77172356  0.81675327  1
  H  H924  1  0.12216133  0.71773459  0.80593723  1
  Zn  Zn925  1  0.17177833  0.90879755  0.78997698  1
  C  C926  1  0.12064798  0.67397225  0.78986521  1
  H  H927  1  0.19867720  0.79129631  0.77398842  1
  C  C928  1  0.21410446  0.72246788  0.83750802  1
  H  H929  1  0.03144853  0.95530206  0.78633558  1
  C  C930  1  0.22086019  0.67325243  0.78390281  1
  O  O931  1  0.10803063  0.83412680  0.77752591  1
  C  C932  1  0.11434143  0.69840720  0.76330684  1
  H  H933  1  0.05285168  0.67384390  0.86869601  1
  H  H934  1  0.14541509  0.73232951  0.87991029  1
  C  C935  1  0.04799876  0.62842501  0.88313059  1
  C  C936  1  0.15986900  0.68378645  0.89269909  1
  C  C937  1  0.08020968  0.60422985  0.90322008  1
  C  C938  1  0.20662604  0.68001530  0.89874622  1
  C  C939  1  0.13099180  0.62582106  0.90533286  1
  C  C940  1  0.15169798  0.57422417  0.92435502  1
  H  H941  1  0.21485387  0.74840537  0.85732054  1
  C  C942  1  0.06756605  0.55071702  0.92429246  1
  H  H943  1  0.22108507  0.65353432  0.76334590  1
  C  C944  1  0.22679137  0.61887359  0.91458818  1
  C  C945  1  0.19898813  0.55883698  0.92671376  1
  H  H946  1  0.10797478  0.55062325  0.95931901  1
  H  H947  1  0.22955782  0.72610678  0.88902613  1
  C  C948  1  0.23417811  0.64933183  0.83063350  1
  H  H949  1  0.08542905  0.96628858  0.87396159  1
  C  C950  1  0.13228843  0.53830032  0.77444595  1
  C  C951  1  0.23778218  0.99435823  0.98395039  1
  C  C952  1  0.02818995  0.84921826  0.85243256  1
  C  C953  1  0.18489733  0.99839009  0.98848737  1
  H  H954  1  0.23203773  0.55466805  0.85719252  1
  C  C955  1  0.23920333  0.62553304  0.80341180  1
  C  C956  1  0.11318964  0.52810270  0.93904745  1
  H  H957  1  0.16148366  0.99067655  0.84455268  1
  C  C958  1  0.10908510  0.78587670  0.75985370  1
  C  C959  1  0.02286081  0.52148426  0.92625892  1
  H  H960  1  0.01815944  0.50853091  0.81384513  1
  C  C961  1  0.00617348  0.58715097  0.88288296  1
  O  O962  1  0.02794237  0.78283541  0.85875878  1
  O  O963  1  0.02831969  0.91495218  0.84597148  1
  H  H964  1  0.21631467  0.50994395  0.93677186  1
  C  C965  1  0.19811094  0.53741323  0.99720510  1
  O  O966  1  0.24791204  0.93973161  0.80336401  1
  H  H967  1  0.00963178  0.98049149  0.89795813  1
  H  H968  1  0.25568137  0.51578529  0.76032355  1
  H  H969  1  0.25173307  0.93216290  0.98707746  1
  C  C970  1  0.27319515  0.50578326  0.77887533  1
  C  C971  1  0.39746741  0.50735929  0.87895191  1
  C  C972  1  0.47089769  0.86136340  0.76124766  1
  C  C973  1  0.32803429  0.84321651  0.76016085  1
  C  C974  1  0.41142160  0.51053605  0.76460062  1
  C  C975  1  0.43990550  0.85074067  0.86765644  1
  C  C976  1  0.26115570  0.58614110  0.84693384  1
  C  C977  1  0.26659125  0.54838223  0.80141610  1
  O  O978  1  0.45906430  0.52627226  0.97322960  1
  C  C979  1  0.38567389  0.56895145  0.77939910  1
  C  C980  1  0.45633562  0.92533948  0.85307933  1
  O  O981  1  0.47071771  0.87787513  0.78295933  1
  C  C982  1  0.48253982  0.52837597  0.82354658  1
  C  C983  1  0.28394399  0.53009109  0.82750692  1
  O  O984  1  0.36131708  0.54520235  0.88528788  1
  H  H985  1  0.45221823  0.91908071  0.83152238  1
  Zn  Zn986  1  0.48199542  0.62576781  0.94354905  1
  C  C987  1  0.48728783  0.99555462  0.85797421  1
  C  C988  1  0.37970916  0.64341183  0.76759951  1
  H  H989  1  0.27504593  0.81167558  0.81915831  1
  C  C990  1  0.32282180  0.72769080  0.80114256  1
  H  H991  1  0.38247888  0.63911140  0.85464485  1
  H  H992  1  0.31729017  0.68352305  0.81697647  1
  C  C993  1  0.29979453  0.85340845  0.78222641  1
  C  C994  1  0.46906422  0.81156452  0.88760198  1
  O  O995  1  0.29742573  0.56831288  0.93334300  1
  Zn  Zn996  1  0.47645853  0.93208881  0.89243821  1
  C  C997  1  0.44680409  0.75658789  0.90582840  1
  C  C998  1  0.46783290  0.60250075  0.81141313  1
  O  O999  1  0.30157821  0.67528692  0.91122523  1
  O  O1000  1  0.33092067  0.79059827  0.97717909  1
  C  C1001  1  0.49293490  0.61632569  0.78622798  1
  O  O1002  1  0.36586447  0.91390886  0.98047910  1
  C  C1003  1  0.48622896  0.67183275  0.76573589  1
  O  O1004  1  0.27904414  0.98680119  0.76860726  1
  H  H1005  1  0.40618839  0.82554076  0.86287082  1
  H  H1006  1  0.37267721  0.55557139  0.79934295  1
  O  O1007  1  0.40663544  0.61380706  0.94860100  1
  H  H1008  1  0.47666908  0.78803382  0.83938764  1
  C  C1009  1  0.34906063  0.85233129  0.97912958  1
  C  C1010  1  0.35159709  0.77304582  0.75860020  1
  C  C1011  1  0.43233075  0.64650366  0.82288568  1
  C  C1012  1  0.29667833  0.79913882  0.80182193  1
  C  C1013  1  0.27417377  0.93507038  0.78527512  1
  C  C1014  1  0.35076619  0.71321512  0.77884401  1
  H  H1015  1  0.45333490  0.70899192  0.76704159  1
  C  C1016  1  0.27771022  0.62360286  0.92069888  1
  H  H1017  1  0.41919572  0.70462158  0.81648471  1
  H  H1018  1  0.30372868  0.65611520  0.75012638  1
  Zn  Zn1019  1  0.39024537  0.57334655  0.98455156  1
  H  H1020  1  0.28698538  0.61048101  0.86307530  1
  C  C1021  1  0.41015955  0.60958320  0.84410304  1
  H  H1022  1  0.44241209  0.92011715  0.95734271  1
  O  O1023  1  0.46625479  0.91651275  0.94545747  1
  O  O1024  1  0.40737157  0.72856186  0.89918819  1
  C  C1025  1  0.42201917  0.53504359  0.85444210  1
  H  H1026  1  0.47228564  0.86263758  0.94255309  1
  O  O1027  1  0.46610971  0.73714823  0.92712625  1
  Zn  Zn1028  1  0.37448947  0.63328784  0.91595638  1
  Zn  Zn1029  1  0.28160867  0.53043592  0.97086824  1
  H  H1030  1  0.31466757  0.99971097  0.94234855  1
  O  O1031  1  0.33667121  0.50238824  0.99021015  1
  H  H1032  1  0.59582749  0.28363950  0.03706321  1
  H  H1033  1  0.65022124  0.15984040  0.03917323  1
  C  C1034  1  0.63123282  0.10589466  0.03273330  1
  C  C1035  1  0.56183146  0.26209634  0.03173350  1
  C  C1036  1  0.58424342  0.11365200  0.02212845  1
  C  C1037  1  0.67973415  0.34824060  0.03288457  1
  C  C1038  1  0.55176451  0.18071464  0.02297153  1
  H  H1039  1  0.53387502  0.37972398  0.03534234  1
  C  C1040  1  0.52579106  0.31334272  0.03121390  1
  C  C1041  1  0.54094115  0.36063915  0.09950468  1
  Zn  Zn1042  1  0.64328290  0.42037055  0.06658841  1
  C  C1043  1  0.64855648  0.42273103  0.02585755  1
  O  O1044  1  0.66770642  0.28039251  0.03595225  1
  C  C1045  1  0.56942165  0.41762986  0.11133981  1
  C  C1046  1  0.53991613  0.28203655  0.10715471  1
  C  C1047  1  0.60515465  0.41728436  0.00911383  1
  H  H1048  1  0.67680962  0.07672564  0.13197060  1
  C  C1049  1  0.57249382  0.25848873  0.12624866  1
  C  C1050  1  0.59966851  0.39728669  0.13093458  1
  H  H1051  1  0.67750386  0.26530363  0.13848103  1
  H  H1052  1  0.62057332  0.44278294  0.14130344  1
  C  C1053  1  0.60613171  0.31670586  0.13463759  1
  C  C1054  1  0.55307251  0.11058648  0.14195735  1
  C  C1055  1  0.64458179  0.27067767  0.14995857  1
  C  C1056  1  0.58141201  0.18062785  0.13988166  1
  H  H1057  1  0.65415003  0.30567302  0.16844013  1
  C  C1058  1  0.62295569  0.18848240  0.15497618  1
  H  H1059  1  0.65770012  0.13410478  0.18862486  1
  C  C1060  1  0.62959213  0.12980495  0.17366527  1
  C  C1061  1  0.61348994  0.38409092  0.19844507  1
  C  C1062  1  0.65018654  0.44236460  0.19666022  1
  H  H1063  1  0.57736358  0.39507141  0.19148119  1
  C  C1064  1  0.62474453  0.31251225  0.21059702  1
  C  C1065  1  0.69710736  0.41926836  0.20212694  1
  C  C1066  1  0.70738266  0.34319076  0.21083693  1
  C  C1067  1  0.56764462  0.04367728  0.15558810  1
  C  C1068  1  0.60712321  0.05693478  0.17205042  1
  C  C1069  1  0.67170969  0.29087437  0.21607165  1
  H  H1070  1  0.59893860  0.26669783  0.21449811  1
  C  C1071  1  0.71423406  0.41385361  0.12420039  1
  C  C1072  1  0.67690046  0.21040634  0.22820930  1
  H  H1073  1  0.51954735  0.10794089  0.13263575  1
  C  C1074  1  0.50690624  0.15921507  0.01370114  1
  H  H1075  1  0.71864018  0.34851561  0.03051685  1
  C  C1076  1  0.56093080  0.05126842  0.00933648  1
  C  C1077  1  0.57656979  0.48653378  0.01461194  1
  O  O1078  1  0.51313716  0.03798070  0.23662857  1
  H  H1079  1  0.74188787  0.32505810  0.21405327  1
  H  H1080  1  0.60333438  0.46532998  0.24152912  1
  C  C1081  1  0.74555512  0.18540404  0.10239773  1
  C  C1082  1  0.50949016  0.07156652  0.00422221  1
  O  O1083  1  0.63839563  0.17579338  0.23484186  1
  O  O1084  1  0.71439300  0.19883385  0.08921654  1
  C  C1085  1  0.53254092  0.49559263  0.00445085  1
  O  O1086  1  0.71506885  0.18547810  0.23407239  1
  H  H1087  1  0.51565501  0.24126072  0.09954993  1
  H  H1088  1  0.51918724  0.38036587  0.08268017  1
  C  C1089  1  0.68578784  0.47959272  0.12289333  1
  H  H1090  1  0.64959273  0.47755445  0.11741348  1
  C  C1091  1  0.65132391  0.03305684  0.02839646  1
  O  O1092  1  0.51304361  0.46386047  0.20111138  1
  C  C1093  1  0.72866265  0.49294037  0.19799191  1
  C  C1094  1  0.67923263  0.01282419  0.13252966  1
  H  H1095  1  0.68833014  0.02456160  0.03361082  1
  H  H1096  1  0.51659155  0.00057415  0.05075446  1
  C  C1097  1  0.80457899  0.32538284  0.24394736  1
  H  H1098  1  0.99256440  0.38545203  0.16602774  1
  O  O1099  1  0.79194439  0.00822154  0.24279665  1
  C  C1100  1  0.83499918  0.47912130  0.14146132  1
  C  C1101  1  0.97103090  0.36292247  0.03387364  1
  C  C1102  1  0.75858206  0.39249020  0.13005445  1
  H  H1103  1  0.84854631  0.45233426  0.15953513  1
  O  O1104  1  0.77877600  0.17371292  0.11528487  1
  H  H1105  1  0.75272505  0.12817745  0.16215605  1
  H  H1106  1  0.77448795  0.33242370  0.12532868  1
  C  C1107  1  0.78512367  0.46324664  0.13512909  1
  C  C1108  1  0.87545891  0.48469704  0.00366112  1
  C  C1109  1  0.99961022  0.22610936  0.16220226  1
  H  H1110  1  0.80721799  0.07139911  0.11913195  1
  C  C1111  1  0.95129808  0.37245870  0.05929620  1
  H  H1112  1  0.90632165  0.06906547  0.05769136  1
  O  O1113  1  0.89152114  0.10901925  0.12544022  1
  O  O1114  1  0.85335870  0.14312616  0.01496676  1
  C  C1115  1  0.97010202  0.43277118  0.07467336  1
  C  C1116  1  0.81057672  0.40805405  0.24094391  1
  H  H1117  1  0.89133159  0.42578190  0.00906175  1
  C  C1118  1  0.88381308  0.01937478  0.20198268  1
  Zn  Zn1119  1  0.92684620  0.21319657  0.11824138  1
  O  O1120  1  0.90538004  0.08278745  0.20673040  1
  C  C1121  1  0.83227568  0.26965096  0.23140100  1
  C  C1122  1  0.89964621  0.03646099  0.12053109  1
  C  C1123  1  0.81724791  0.01081989  0.10956577  1
  H  H1124  1  0.95880632  0.31532051  0.02071814  1
  H  H1125  1  0.83363540  0.13683137  0.18229930  1
  C  C1126  1  0.81764255  0.07925418  0.17813770  1
  O  O1127  1  0.93926989  0.00724958  0.12393711  1
  H  H1128  1  0.95912836  0.43804657  0.09627417  1
  H  H1129  1  0.83532955  0.02309769  0.03802716  1
  Zn  Zn1130  1  0.95229440  0.11018884  0.23522713  1
  H  H1131  1  0.95050798  0.39102454  0.21178686  1
  C  C1132  1  0.91322937  0.31801016  0.06825491  1
  C  C1133  1  0.92063359  0.41576131  0.20059546  1
  O  O1134  1  0.95961296  0.24704776  0.15606012  1
  Zn  Zn1135  1  0.98542235  0.04108680  0.05877630  1
  Zn  Zn1136  1  0.91911687  0.18781073  0.02346826  1
  H  H1137  1  0.75108878  0.48404343  0.18063190  1
  H  H1138  1  0.85963727  0.45884326  0.12550389  1
  C  C1139  1  0.87513473  0.37384351  0.21015840  1
  C  C1140  1  0.77468964  0.07657014  0.16605399  1
  C  C1141  1  0.83953633  0.00832942  0.18736633  1
  O  O1142  1  0.93151251  0.10265728  0.05138025  1
  C  C1143  1  0.86643588  0.29091652  0.21274383  1
  H  H1144  1  0.88845660  0.24240671  0.20363452  1
  H  H1145  1  0.92708511  0.40962548  0.17910763  1
  C  C1146  1  0.84605657  0.43108214  0.22290846  1
  O  O1147  1  0.99251122  0.24587891  0.10159274  1
  O  O1148  1  0.90357048  0.30765508  0.09240919  1
  O  O1149  1  0.89167382  0.27783618  0.05164942  1
  C  C1150  1  0.54434337  0.23857850  0.33141772  1
  C  C1151  1  0.53077951  0.26358871  0.30427721  1
  O  O1152  1  0.56365973  0.29054456  0.34601183  1
  C  C1153  1  0.66298617  0.43218782  0.29136498  1
  C  C1154  1  0.66026647  0.41911968  0.31889034  1
  H  H1155  1  0.56267513  0.37729592  0.31437425  1
  C  C1156  1  0.54295724  0.34356119  0.29906785  1
  C  C1157  1  0.68715513  0.36099336  0.33315162  1
  H  H1158  1  0.68841029  0.39904932  0.28019077  1
  O  O1159  1  0.68135353  0.35836766  0.35820550  1
  O  O1160  1  0.71864347  0.32127482  0.32259151  1
  C  C1161  1  0.53503070  0.37386183  0.27393714  1
  O  O1162  1  0.55202910  0.04867376  0.27191800  1
  H  H1163  1  0.54873241  0.43222883  0.26918601  1
  H  H1164  1  0.66221766  0.03131028  0.30267150  1
  Zn  Zn1165  1  0.62223311  0.27149248  0.36784919  1
  C  C1166  1  0.52905593  0.44768125  0.37646744  1
  O  O1167  1  0.60260675  0.05283556  0.37740305  1
  C  C1168  1  0.56058139  0.47322101  0.39568675  1
  C  C1169  1  0.62926565  0.09741362  0.38742523  1
  O  O1170  1  0.57989186  0.33769467  0.40208442  1
  H  H1171  1  0.55560396  0.08499342  0.42655217  1
  C  C1172  1  0.58367200  0.40668354  0.41162046  1
  O  O1173  1  0.61665387  0.17721039  0.39138656  1
  O  O1174  1  0.55066150  0.23044050  0.46137832  1
  Zn  Zn1175  1  0.59492830  0.22703337  0.42604740  1
  O  O1176  1  0.65540112  0.22937027  0.44968765  1
  C  C1177  1  0.69658541  0.25114792  0.44408229  1
  O  O1178  1  0.70473556  0.30716919  0.42970953  1
  C  C1179  1  0.67708360  0.07020008  0.39497655  1
  Zn  Zn1180  1  0.67940775  0.42508730  0.44165724  1
  H  H1181  1  0.70124976  0.19012939  0.40131547  1
  C  C1182  1  0.70929710  0.12766705  0.40315269  1
  O  O1183  1  0.60439004  0.41736481  0.43226451  1
  C  C1184  1  0.73619615  0.20738869  0.45663009  1
  H  H1185  1  0.55820481  0.28543058  0.45977880  1
  C  C1186  1  0.72621117  0.15326950  0.47648372  1
  O  O1187  1  0.69507151  0.42847821  0.48264684  1
  H  H1188  1  0.54171828  0.43018946  0.47552288  1
  Zn  Zn1189  1  0.72795063  0.42460470  0.38969658  1
  H  H1190  1  0.52028356  0.38486427  0.37247058  1
  C  C1191  1  0.51594748  0.02850889  0.26080668  1
  H  H1192  1  0.62385210  0.45095914  0.35449400  1
  C  C1193  1  0.51675360  0.08734850  0.42294231  1
  C  C1194  1  0.62818955  0.46406626  0.33387172  1
  H  H1195  1  0.69115216  0.14734035  0.48305179  1
  O  O1196  1  0.53069599  0.17333214  0.34050313  1
  O  O1197  1  0.74204144  0.47493756  0.42484944  1
  Zn  Zn1198  1  0.61283000  0.01305453  0.45537358  1
  C  C1199  1  0.63412197  0.48746454  0.27999324  1
  C  C1200  1  0.51307114  0.21237264  0.28644771  1
  H  H1201  1  0.50598649  0.15133062  0.29362352  1
  C  C1202  1  0.50048566  0.23669474  0.44163773  1
  C  C1203  1  0.74910746  0.09795132  0.41522705  1
  C  C1204  1  0.51078014  0.46031616  0.48459179  1
  C  C1205  1  0.73358155  0.40413215  0.49073410  1
  C  C1206  1  0.51254207  0.32427891  0.25500090  1
  Zn  Zn1207  1  0.62073845  0.07042483  0.25062047  1
  H  H1208  1  0.82416568  0.49271186  0.38648496  1
  O  O1209  1  0.76385978  0.14662897  0.29184194  1
  H  H1210  1  0.75195392  0.01607391  0.28369591  1
  C  C1211  1  0.77910028  0.49759613  0.29265894  1
  H  H1212  1  0.79477325  0.45232627  0.25349302  1
  H  H1213  1  0.85772741  0.22049101  0.49795395  1
  H  H1214  1  0.77594201  0.13725751  0.42139428  1
  H  H1215  1  0.76138579  0.44045597  0.29056415  1
  C  C1216  1  0.78095833  0.22682452  0.44916743  1
  C  C1217  1  0.94500016  0.01214792  0.42695701  1
  C  C1218  1  0.99777365  0.34477622  0.49327141  1
  C  C1219  1  0.99851534  0.31565650  0.30827458  1
  H  H1220  1  0.94170779  0.24117242  0.47347341  1
  C  C1221  1  0.98760273  0.10507180  0.26904395  1
  H  H1222  1  0.85478040  0.19974979  0.45571654  1
  C  C1223  1  0.99324165  0.26593206  0.39042603  1
  O  O1224  1  0.88492167  0.44007996  0.32628509  1
  C  C1225  1  0.84533680  0.20075485  0.39388765  1
  H  H1226  1  0.99833208  0.14056214  0.39318815  1
  H  H1227  1  0.83939518  0.06274584  0.44421194  1
  C  C1228  1  0.89239794  0.07124516  0.49782944  1
  C  C1229  1  0.78575545  0.12592912  0.31200972  1
  C  C1230  1  0.84297190  0.07960629  0.49626764  1
  C  C1231  1  0.89365945  0.41413040  0.48968001  1
  H  H1232  1  0.95774537  0.26262323  0.38278282  1
  O  O1233  1  0.97326187  0.07081227  0.28799055  1
  O  O1234  1  0.82937040  0.36568110  0.31293842  1
  O  O1235  1  0.83952714  0.40832990  0.40344353  1
  C  C1236  1  0.84740701  0.43187961  0.31544353  1
  Zn  Zn1237  1  0.78862072  0.21314791  0.25818459  1
  H  H1238  1  0.90505740  0.35439110  0.42802288  1
  C  C1239  1  0.89268043  0.48084123  0.47100495  1
  C  C1240  1  0.93840408  0.09331965  0.43301273  1
  O  O1241  1  0.96320938  0.30357106  0.29675834  1
  C  C1242  1  0.85672526  0.27754687  0.40383289  1
  C  C1243  1  0.90581311  0.15340294  0.42238610  1
  Zn  Zn1244  1  0.78632384  0.29270479  0.33839932  1
  C  C1245  1  0.78656611  0.03898807  0.31988627  1
  O  O1246  1  0.76767100  0.39886838  0.47566431  1
  O  O1247  1  0.80824088  0.17378282  0.32497329  1
  H  H1248  1  0.86058323  0.07585884  0.39741969  1
  H  H1249  1  0.82086940  0.19071179  0.37863697  1
  O  O1250  1  0.90989360  0.04954188  0.33836608  1
  Zn  Zn1251  1  0.89063804  0.45091213  0.36783758  1
  H  H1252  1  0.98433692  0.25925790  0.44990528  1
  O  O1253  1  0.95226992  0.40029234  0.37595786  1
  C  C1254  1  0.82557527  0.34003973  0.39444030  1
  C  C1255  1  0.76261781  0.11486370  0.48837575  1
  C  C1256  1  0.87373484  0.33931808  0.48352521  1
  H  H1257  1  0.82709448  0.05913944  0.35386794  1
  C  C1258  1  0.91588812  0.22896455  0.43231975  1
  H  H1259  1  0.91580335  0.09807280  0.48374312  1
  C  C1260  1  0.95419873  0.22089854  0.45456390  1
  H  H1261  1  0.85679676  0.32952867  0.46465829  1
  C  C1262  1  0.99303954  0.41488636  0.38446659  1
  C  C1263  1  0.96747269  0.13118202  0.45221997  1
  C  C1264  1  0.89369068  0.29388332  0.42134869  1
  Zn  Zn1265  1  0.80227551  0.46317289  0.44316055  1
  C  C1266  1  0.86976188  0.13583062  0.40390761  1
  H  H1267  1  0.78797253  0.26328031  0.43193484  1
  C  C1268  1  0.80939435  0.01931496  0.34269162  1
  O  O1269  1  0.79186043  0.33652892  0.37961922  1
  H  H1270  1  0.92598923  0.04536554  0.32215394  1
  C  C1271  1  0.81845050  0.18532242  0.46071768  1
  C  C1272  1  0.80989614  0.12839106  0.48029681  1
  O  O1273  1  0.87511026  0.46786171  0.44940444  1
  Zn  Zn1274  1  0.95995564  0.43113464  0.26975780  1
  H  H1275  1  0.98749690  0.46108757  0.47786205  1
  C  C1276  1  0.99903962  0.09062567  0.46777796  1
  C  C1277  1  0.75283826  0.01456196  0.41665748  1
  C  C1278  1  0.68351076  0.07395254  0.55027131  1
  C  C1279  1  0.63604641  0.16727971  0.52547173  1
  C  C1280  1  0.67790313  0.15446294  0.54168581  1
  C  C1281  1  0.71115628  0.21270127  0.54906856  1
  H  H1282  1  0.70307588  0.27759490  0.54448056  1
  O  O1283  1  0.60772813  0.11838948  0.51858770  1
  O  O1284  1  0.62912859  0.23651033  0.51763065  1
  C  C1285  1  0.70727192  0.40648868  0.53735271  1
  C  C1286  1  0.71690678  0.39963744  0.56384278  1
  C  C1287  1  0.55979697  0.18619085  0.60222338  1
  H  H1288  1  0.66196546  0.36774606  0.59264736  1
  H  H1289  1  0.60186840  0.11962132  0.57546826  1
  C  C1290  1  0.60136144  0.16431115  0.59075735  1
  H  H1291  1  0.53189666  0.26163558  0.63150913  1
  C  C1292  1  0.56416858  0.23616287  0.62425335  1
  H  H1293  1  0.67830237  0.16183102  0.58890524  1
  C  C1294  1  0.64617325  0.18481424  0.59781772  1
  H  H1295  1  0.60937977  0.37844597  0.64983959  1
  C  C1296  1  0.65128373  0.23357826  0.62046444  1
  C  C1297  1  0.60864950  0.25874377  0.63200921  1
  C  C1298  1  0.61724166  0.31716094  0.65470695  1
  C  C1299  1  0.73870426  0.25378468  0.63290417  1
  H  H1300  1  0.59566966  0.29730981  0.67261977  1
  C  C1301  1  0.69021888  0.26605937  0.63629764  1
  C  C1302  1  0.67018020  0.30629332  0.65772570  1
  C  C1303  1  0.69885861  0.33905989  0.67710495  1
  H  H1304  1  0.68383957  0.37581925  0.69239132  1
  C  C1305  1  0.54095813  0.44484111  0.65198726  1
  H  H1306  1  0.63747573  0.25572239  0.70684722  1
  C  C1307  1  0.63339079  0.31287818  0.72103876  1
  C  C1308  1  0.71982111  0.05030111  0.56573970  1
  H  H1309  1  0.65942814  0.03046930  0.54248343  1
  O  O1310  1  0.56337318  0.35779500  0.51419046  1
  C  C1311  1  0.53110715  0.39267833  0.52595116  1
  H  H1312  1  0.67284371  0.42528059  0.53063125  1
  C  C1313  1  0.71839456  0.44079107  0.60985188  1
  C  C1314  1  0.67358208  0.36018764  0.73201782  1
  C  C1315  1  0.68465379  0.42044524  0.58732850  1
  C  C1316  1  0.51333488  0.15872758  0.59151114  1
  O  O1317  1  0.59378668  0.30384941  0.72510199  1
  O  O1318  1  0.51103433  0.11852939  0.57148763  1
  C  C1319  1  0.51243782  0.43300894  0.69690860  1
  Zn  Zn1320  1  0.55742534  0.23337415  0.50638750  1
  C  C1321  1  0.53697210  0.47353275  0.67803735  1
  O  O1322  1  0.56477703  0.46949570  0.60730513  1
  C  C1323  1  0.74680238  0.31788539  0.67592328  1
  C  C1324  1  0.71169354  0.48288529  0.63351474  1
  H  H1325  1  0.51227810  0.45591329  0.71695786  1
  C  C1326  1  0.51751517  0.37569246  0.64459941  1
  O  O1327  1  0.52630921  0.38540608  0.55084545  1
  H  H1328  1  0.51716064  0.35902112  0.62352795  1
  C  C1329  1  0.57208024  0.02891427  0.74410307  1
  C  C1330  1  0.53904125  0.01517835  0.72557574  1
  Zn  Zn1331  1  0.74433938  0.40127771  0.72529092  1
  Zn  Zn1332  1  0.50802300  0.09375350  0.74805725  1
  H  H1333  1  0.64805223  0.00872101  0.73445729  1
  H  H1334  1  0.74062992  0.00238679  0.50722613  1
  O  O1335  1  0.68544777  0.10164779  0.73764209  1
  C  C1336  1  0.74881820  0.49370918  0.65015164  1
  C  C1337  1  0.56473090  0.49097481  0.63092271  1
  C  C1338  1  0.74395231  0.39607613  0.51923289  1
  H  H1339  1  0.74999980  0.08588076  0.53002848  1
  C  C1340  1  0.74844321  0.19423300  0.56489783  1
  Zn  Zn1341  1  0.50572046  0.47237991  0.57930454  1
  C  C1342  1  0.50098936  0.44764684  0.51174696  1
  H  H1343  1  0.65853417  0.47033192  0.58199441  1
  C  C1344  1  0.75150915  0.11488593  0.57399941  1
  H  H1345  1  0.98832642  0.11188237  0.56604782  1
  H  H1346  1  0.94961621  0.01981724  0.51991449  1
  C  C1347  1  0.92424315  0.29162070  0.57172381  1
  H  H1348  1  0.75174017  0.22210618  0.61617327  1
  H  H1349  1  0.80412795  0.27938056  0.65031464  1
  H  H1350  1  0.83716797  0.49029591  0.57194036  1
  C  C1351  1  0.93535597  0.25871290  0.59580877  1
  H  H1352  1  0.81809852  0.46721052  0.66097516  1
  H  H1353  1  0.99776206  0.44287066  0.73882250  1
  H  H1354  1  0.92874242  0.48965645  0.51829561  1
  C  C1355  1  0.89127897  0.16866225  0.55448066  1
  H  H1356  1  0.86991722  0.13301475  0.53961739  1
  C  C1357  1  0.87500442  0.27812846  0.50204948  1
  H  H1358  1  0.82749280  0.17424744  0.60950469  1
  H  H1359  1  0.97547218  0.37981901  0.55752398  1
  C  C1360  1  0.89280163  0.29989837  0.52727718  1
  O  O1361  1  0.82168971  0.35250275  0.69766162  1
  C  C1362  1  0.91606470  0.37412677  0.53258187  1
  C  C1363  1  0.76717230  0.28018365  0.65309188  1
  H  H1364  1  0.97237162  0.23557721  0.53906142  1
  C  C1365  1  0.93837444  0.37376015  0.56014379  1
  H  H1366  1  0.92775418  0.42443111  0.57297073  1
  O  O1367  1  0.95404342  0.18042326  0.64255802  1
  H  H1368  1  0.77297602  0.24279551  0.57121633  1
  C  C1369  1  0.92650961  0.17644290  0.59810658  1
  C  C1370  1  0.79947482  0.38278428  0.55606517  1
  H  H1371  1  0.83296033  0.39076552  0.61605741  1
  C  C1372  1  0.79276551  0.45692765  0.64459371  1
  H  H1373  1  0.87356923  0.07991599  0.63614321  1
  H  H1374  1  0.98369664  0.24285628  0.73682930  1
  H  H1375  1  0.81200212  0.37128144  0.51406688  1
  C  C1376  1  0.79865515  0.41508358  0.62159042  1
  C  C1377  1  0.78823430  0.38209344  0.52970292  1
  C  C1378  1  0.81474412  0.03767856  0.51455087  1
  C  C1379  1  0.76277148  0.41281338  0.60263791  1
  C  C1380  1  0.76244456  0.39234805  0.57392353  1
  C  C1381  1  0.76232811  0.05720231  0.51148359  1
  C  C1382  1  0.90119834  0.25109229  0.55055540  1
  C  C1383  1  0.90521807  0.13181336  0.57793559  1
  C  C1384  1  0.91172106  0.02831094  0.51815783  1
  C  C1385  1  0.84420649  0.05531189  0.62391444  1
  C  C1386  1  0.78154894  0.35126735  0.69494676  1
  C  C1387  1  0.94398064  0.14197476  0.62412443  1
  C  C1388  1  0.91379651  0.43177072  0.51392450  1
  C  C1389  1  0.91506019  0.45785479  0.62381819  1
  C  C1390  1  0.81907163  0.10911576  0.60881352  1
  H  H1391  1  0.83631299  0.37432347  0.56253981  1
  O  O1392  1  0.91320190  0.39622549  0.63387358  1
  H  H1393  1  0.95315788  0.29437614  0.61239976  1
  O  O1394  1  0.94716444  0.06532690  0.62299138  1
  C  C1395  1  0.78166485  0.07565213  0.59377723  1
  H  H1396  1  0.89806120  0.07118760  0.58051510  1
  H  H1397  1  0.99424382  0.46263931  0.61498469  1
  H  H1398  1  0.96397046  0.33782863  0.50238187  1
  C  C1399  1  0.65516133  0.26309376  0.81744762  1
  C  C1400  1  0.63258042  0.26797002  0.79248931  1
  H  H1401  1  0.65191005  0.27574179  0.77437096  1
  C  C1402  1  0.70404030  0.27632206  0.82408200  1
  C  C1403  1  0.58514652  0.27200311  0.79171137  1
  H  H1404  1  0.56676436  0.27312638  0.77226201  1
  H  H1405  1  0.65615185  0.37898563  0.83362444  1
  C  C1406  1  0.56125444  0.27896754  0.81572428  1
  C  C1407  1  0.62647068  0.26337967  0.84149864  1
  C  C1408  1  0.70531527  0.28343982  0.85246888  1
  C  C1409  1  0.57917042  0.27575655  0.84161472  1
  C  C1410  1  0.66451208  0.44145470  0.84113852  1
  H  H1411  1  0.55947602  0.28032508  0.85939957  1
  C  C1412  1  0.65810563  0.25691923  0.86486980  1
  C  C1413  1  0.70186107  0.06065044  0.84212422  1
  H  H1414  1  0.65508610  0.09536183  0.80762532  1
  H  H1415  1  0.69095247  0.43282443  0.85753098  1
  H  H1416  1  0.65998808  0.19593212  0.87285825  1
  C  C1417  1  0.59125320  0.47615210  0.87251943  1
  H  H1418  1  0.64562100  0.29690479  0.88121438  1
  H  H1419  1  0.59473981  0.42128839  0.88304188  1
  C  C1420  1  0.52312760  0.21382537  0.92626393  1
  C  C1421  1  0.53137040  0.13693149  0.93759932  1
  H  H1422  1  0.55052716  0.32764028  0.91469639  1
  C  C1423  1  0.55617864  0.27254093  0.92502684  1
  C  C1424  1  0.59705894  0.25797167  0.93904038  1
  C  C1425  1  0.56817801  0.12472545  0.95376510  1
  C  C1426  1  0.60301332  0.18558722  0.95340672  1
  C  C1427  1  0.64704937  0.18606478  0.96842043  1
  C  C1428  1  0.66763300  0.26726595  0.96431536  1
  C  C1429  1  0.63891182  0.31234012  0.94275856  1
  H  H1430  1  0.65970359  0.31984618  0.92465129  1
  H  H1431  1  0.53300742  0.32294178  0.96572837  1
  H  H1432  1  0.63014341  0.37264891  0.94966967  1
  C  C1433  1  0.54475485  0.37000322  0.97970992  1
  O  O1434  1  0.52635415  0.44947031  0.91076278  1
  Zn  Zn1435  1  0.70624592  0.19458014  0.99107812  1
  C  C1436  1  0.72023281  0.26455291  0.95873879  1
  H  H1437  1  0.53563243  0.07693823  0.87752785  1
  C  C1438  1  0.52016863  0.44069345  0.98533464  1
  C  C1439  1  0.65918330  0.06422210  0.82649751  1
  H  H1440  1  0.73680088  0.31510688  0.94742591  1
  C  C1441  1  0.72478113  0.10815100  0.96307276  1
  C  C1442  1  0.67198631  0.11009090  0.97059332  1
  H  H1443  1  0.57397004  0.07079806  0.96552062  1
  H  H1444  1  0.66604891  0.41950617  0.76932021  1
  C  C1445  1  0.68983687  0.02086197  0.86654049  1
  C  C1446  1  0.62399261  0.02713541  0.84037849  1
  C  C1447  1  0.57570979  0.08510251  0.76997071  1
  H  H1448  1  0.60839819  0.12174330  0.76917065  1
  H  H1449  1  0.65149374  0.05559841  0.96922490  1
  H  H1450  1  0.52120490  0.43441978  0.80066304  1
  C  C1451  1  0.62120993  0.48769488  0.85141665  1
  C  C1452  1  0.74509209  0.09931474  0.83923174  1
  C  C1453  1  0.74102284  0.18585648  0.95472629  1
  H  H1454  1  0.73857815  0.05262429  0.95586876  1
  C  C1455  1  0.74511404  0.29720010  0.80901819  1
  H  H1456  1  0.74564645  0.29341924  0.78729853  1
  C  C1457  1  0.51040038  0.30043232  0.81279363  1
  O  O1458  1  0.56602984  0.07866658  0.79216689  1
  C  C1459  1  0.72498224  0.01067631  0.88561351  1
  H  H1460  1  0.73686348  0.45859633  0.88225807  1
  O  O1461  1  0.72015255  0.10476875  0.77859192  1
  C  C1462  1  0.63951639  0.00150076  0.86559964  1
  C  C1463  1  0.52989000  0.01438502  0.87743822  1
  C  C1464  1  0.52570748  0.49810999  0.80885778  1
  H  H1465  1  0.55862446  0.49603251  0.81937081  1
  H  H1466  1  0.74961085  0.45031122  0.80537479  1
  C  C1467  1  0.74293698  0.31799734  0.86546148  1
  H  H1468  1  0.74028271  0.33542405  0.88620720  1
  H  H1469  1  0.71917371  0.48668510  0.90789270  1
  O  O1470  1  0.71231758  0.44546186  0.89560744  1
  H  H1471  1  0.50392497  0.09331642  0.93438125  1
  H  H1472  1  0.60718732  0.30562025  0.98839240  1
  C  C1473  1  0.58594578  0.35890470  0.99346654  1
  C  C1474  1  0.72176661  0.49323131  0.80372115  1
  C  C1475  1  0.68237080  0.49508019  0.81889254  1
  C  C1476  1  0.70305604  0.10488559  0.75781178  1
  C  C1477  1  0.68542984  0.40308624  0.75127980  1
  C  C1478  1  0.82477217  0.02221956  0.99578215  1
  H  H1479  1  0.75174421  0.13147732  0.82119685  1
  O  O1480  1  0.84503406  0.20221220  0.75602215  1
  C  C1481  1  0.85651878  0.26042204  0.76626894  1
  C  C1482  1  0.84431872  0.10542910  0.99421618  1
  H  H1483  1  0.79812162  0.03603380  0.89557154  1
  O  O1484  1  0.95681899  0.37662253  0.84231829  1
  H  H1485  1  0.96403869  0.19748612  0.76594350  1
  C  C1486  1  0.97034254  0.08355666  0.80781147  1
  C  C1487  1  0.77035468  0.18401991  0.93066363  1
  Zn  Zn1488  1  0.96805919  0.12740680  0.84700090  1
  C  C1489  1  0.96894929  0.44078011  0.78911381  1
  O  O1490  1  0.81908770  0.40835565  0.88309143  1
  C  C1491  1  0.77821436  0.09107970  0.85908273  1
  C  C1492  1  0.91653870  0.00964114  0.78159032  1
  O  O1493  1  0.93944497  0.29401557  0.97992599  1
  Zn  Zn1494  1  0.91231937  0.47900305  0.85082866  1
  H  H1495  1  0.81489170  0.01977210  0.95355559  1
  H  H1496  1  0.98436360  0.35684905  0.94073871  1
  C  C1497  1  0.88990680  0.08273759  0.79284947  1
  Zn  Zn1498  1  0.92932418  0.30815917  0.90747295  1
  C  C1499  1  0.96702231  0.24025924  0.83356347  1
  O  O1500  1  0.84355462  0.34087317  0.98293820  1
  C  C1501  1  0.77981667  0.33980109  0.84930686  1
  C  C1502  1  0.82943563  0.40274252  0.97284965  1
  C  C1503  1  0.97028334  0.13672174  0.91223870  1
  C  C1504  1  0.84303258  0.48514330  0.98359823  1
  O  O1505  1  0.96781933  0.20433001  0.92403991  1
  C  C1506  1  0.97030362  0.31253892  0.85121286  1
  C  C1507  1  0.99063879  0.23687653  0.75843688  1
  C  C1508  1  0.76787677  0.04637774  0.88139325  1
  O  O1509  1  0.93606167  0.43275943  0.91595734  1
  C  C1510  1  0.82641873  0.13173409  0.85751052  1
  O  O1511  1  0.86773206  0.31973224  0.77669815  1
  H  H1512  1  0.87701249  0.12669477  0.77805096  1
  C  C1513  1  0.92405150  0.20613701  0.82516556  1
  O  O1514  1  0.97593549  0.29723198  0.87472607  1
  O  O1515  1  0.85290587  0.40629863  0.84459291  1
  C  C1516  1  0.82040829  0.38727770  0.85914627  1
  O  O1517  1  0.83209925  0.17716436  0.83960978  1
  H  H1518  1  0.81446160  0.34482123  0.81111023  1
  O  O1519  1  0.85742752  0.11423523  0.87358541  1
  O  O1520  1  0.93641567  0.09034177  0.91321486  1
  O  O1521  1  0.87394857  0.25944831  0.92251515  1
  C  C1522  1  0.99147532  0.32088511  0.77208948  1
  H  H1523  1  0.85979614  0.06395828  0.80462725  1
  H  H1524  1  0.92336098  0.36488938  0.76334951  1
  C  C1525  1  0.92553299  0.12249860  0.81161784  1
  C  C1526  1  0.95650222  0.37626221  0.77380981  1
  O  O1527  1  0.85127867  0.12987596  0.97178835  1
  C  C1528  1  0.96428963  0.01519081  0.78898685  1
  C  C1529  1  0.78291829  0.32457180  0.82224089  1
  C  C1530  1  0.97712175  0.25710299  0.98157873  1
  Zn  Zn1531  1  0.86938522  0.14541300  0.91126236  1
  O  O1532  1  0.80354269  0.40155734  0.95321812  1
  H  H1533  1  0.89754967  0.24923994  0.81827796  1
  O  O1534  1  0.79730669  0.12751979  0.92577165  1
  O  O1535  1  0.77075486  0.24622627  0.91734368  1
  Zn  Zn1536  1  0.82741046  0.33660611  0.91657214  1
  Zn  Zn1537  1  0.87991574  0.25063379  0.96057075  1
  C  C1538  1  0.92886704  0.49962385  0.79450562  1
  C  C1539  1  0.94673072  0.49462437  0.90368690  1
  O  O1540  1  0.89475759  0.49286841  0.77944336  1
  O  O1541  1  0.97671514  0.19635755  0.99627551  1
  O  O1542  1  0.58911098  0.75274290  0.04054214  1
  O  O1543  1  0.67845549  0.57454472  0.05307046  1
  H  H1544  1  0.67400340  0.70166251  0.06648472  1
  H  H1545  1  0.56398529  0.88502856  0.05041324  1
  C  C1546  1  0.52785677  0.87334352  0.04707407  1
  C  C1547  1  0.54819702  0.73362569  0.04318223  1
  H  H1548  1  0.69784245  0.83746235  0.08332955  1
  C  C1549  1  0.62984132  0.96303642  0.01705866  1
  O  O1550  1  0.53666767  0.66196813  0.04386851  1
  O  O1551  1  0.61542905  0.75679738  0.10066366  1
  C  C1552  1  0.60634789  0.82837416  0.10954466  1
  C  C1553  1  0.71166913  0.71318057  0.07133064  1
  O  O1554  1  0.57602182  0.86560355  0.09573786  1
  C  C1555  1  0.65744542  0.88746954  0.01586206  1
  O  O1556  1  0.69261736  0.85900547  0.02274967  1
  C  C1557  1  0.51037407  0.79417859  0.04537316  1
  C  C1558  1  0.58312708  0.97729266  0.00740791  1
  Zn  Zn1559  1  0.57286451  0.67744560  0.11657044  1
  O  O1560  1  0.58608442  0.55209690  0.11565954  1
  H  H1561  1  0.69752250  0.60637150  0.12764454  1
  C  C1562  1  0.64623125  0.96322827  0.11960432  1
  C  C1563  1  0.65089192  0.88010790  0.12024640  1
  C  C1564  1  0.72536031  0.57552339  0.05920087  1
  C  C1565  1  0.72311233  0.78871220  0.07976970  1
  H  H1566  1  0.68565268  0.77424035  0.13119318  1
  C  C1567  1  0.68413317  0.83850033  0.13288601  1
  Zn  Zn1568  1  0.51692777  0.94314379  0.20738238  1
  C  C1569  1  0.71570814  0.97258828  0.14610777  1
  C  C1570  1  0.71841721  0.88328796  0.14706952  1
  O  O1571  1  0.58587464  0.93583114  0.19261984  1
  O  O1572  1  0.57653409  0.80299765  0.13621160  1
  Zn  Zn1573  1  0.60102998  0.82677457  0.17151515  1
  O  O1574  1  0.55456618  0.75826223  0.20135911  1
  H  H1575  1  0.59990286  0.64423775  0.21551477  1
  H  H1576  1  0.58670892  0.68856095  0.17063018  1
  C  C1577  1  0.54270552  0.77242553  0.22389056  1
  C  C1578  1  0.65960437  0.69075513  0.18316900  1
  C  C1579  1  0.61602228  0.65254542  0.17450568  1
  O  O1580  1  0.66271204  0.76605983  0.18467388  1
  C  C1581  1  0.58640408  0.65179878  0.23556019  1
  Zn  Zn1582  1  0.71383446  0.95017843  0.21681656  1
  H  H1583  1  0.70758108  0.81342715  0.22198866  1
  C  C1584  1  0.61043329  0.57277020  0.17678109  1
  C  C1585  1  0.69206070  0.55866995  0.19214805  1
  C  C1586  1  0.69599305  0.63934357  0.19021162  1
  H  H1587  1  0.57594833  0.54628040  0.17371472  1
  C  C1588  1  0.64878808  0.52339109  0.18535814  1
  C  C1589  1  0.73645969  0.80221143  0.23546929  1
  H  H1590  1  0.73035514  0.66544826  0.19465658  1
  O  O1591  1  0.51996914  0.83288974  0.22962822  1
  H  H1592  1  0.59980180  0.89292781  0.23664033  1
  Zn  Zn1593  1  0.50805119  0.82433432  0.11503476  1
  C  C1594  1  0.59768397  0.54606757  0.03294838  1
  H  H1595  1  0.57911357  0.55674669  0.05190829  1
  C  C1596  1  0.55854767  0.71394231  0.24433011  1
  H  H1597  1  0.59914921  0.60414400  0.02066464  1
  C  C1598  1  0.50147947  0.94068385  0.04632359  1
  H  H1599  1  0.61595205  0.98894685  0.11054590  1
  H  H1600  1  0.70644753  0.68361218  0.24158385  1
  C  C1601  1  0.71350183  0.54740635  0.12722689  1
  C  C1602  1  0.64993130  0.50588154  0.03714772  1
  C  C1603  1  0.73549633  0.72607117  0.24573216  1
  H  H1604  1  0.54898854  0.98695494  0.15930659  1
  C  C1605  1  0.61661406  0.99389054  0.19134132  1
  O  O1606  1  0.50287601  0.70149070  0.10771097  1
  H  H1607  1  0.65897664  0.51591906  0.23939451  1
  H  H1608  1  0.71597319  0.62605821  0.02044143  1
  C  C1609  1  0.73433738  0.66512122  0.00618689  1
  C  C1610  1  0.74491253  0.65350665  0.06707522  1
  O  O1611  1  0.64867175  0.99942553  0.20664559  1
  C  C1612  1  0.56179628  0.50322965  0.10379383  1
  O  O1613  1  0.53427698  0.52294646  0.08602245  1
  O  O1614  1  0.74828792  0.51843315  0.05724052  1
  H  H1615  1  0.74702345  0.98081650  0.10229444  1
  H  H1616  1  0.74817815  0.71514312  0.13142994  1
  H  H1617  1  0.51150274  0.54846634  0.00889560  1
  H  H1618  1  0.75133629  0.50489848  0.21616411  1
  C  C1619  1  0.86741735  0.62789868  0.00570526  1
  C  C1620  1  0.82016089  0.99093120  0.02127506  1
  C  C1621  1  0.84256740  0.85677997  0.09063406  1
  H  H1622  1  0.86253869  0.71001018  0.23398164  1
  C  C1623  1  0.86198674  0.98288815  0.11005846  1
  C  C1624  1  0.79284799  0.66387376  0.07193395  1
  H  H1625  1  0.96635768  0.63659967  0.12492953  1
  H  H1626  1  0.97699365  0.57386925  0.20074726  1
  H  H1627  1  0.76474726  0.79771762  0.17067362  1
  H  H1628  1  0.80056949  0.88330115  0.04318887  1
  C  C1629  1  0.80018511  0.91535580  0.02424270  1
  O  O1630  1  0.99662900  0.88417906  0.17477865  1
  C  C1631  1  0.95060710  0.71485371  0.21651575  1
  O  O1632  1  0.98572018  0.51435330  0.14093613  1
  C  C1633  1  0.76055916  0.53733241  0.13157615  1
  O  O1634  1  0.98872032  0.71734214  0.20381708  1
  C  C1635  1  0.78291727  0.92730647  0.16849875  1
  H  H1636  1  0.98177671  0.55443570  0.24953991  1
  O  O1637  1  0.94322610  0.73343695  0.14914739  1
  Zn  Zn1638  1  0.94833074  0.92571102  0.15182182  1
  C  C1639  1  0.75585627  0.99969285  0.16029556  1
  O  O1640  1  0.90172740  0.95545744  0.21019318  1
  H  H1641  1  0.92727095  0.53928355  0.05192828  1
  Zn  Zn1642  1  0.96468403  0.89234486  0.20840941  1
  C  C1643  1  0.79040864  0.60948635  0.13701365  1
  C  C1644  1  0.88530596  0.69873781  0.01923627  1
  C  C1645  1  0.84795490  0.58452738  0.22667261  1
  C  C1646  1  0.92883686  0.57615907  0.03296535  1
  C  C1647  1  0.92025806  0.64501288  0.21610410  1
  O  O1648  1  0.98560458  0.61618099  0.11154895  1
  C  C1649  1  0.86664676  0.51165403  0.21852894  1
  C  C1650  1  0.91359829  0.50423742  0.20765627  1
  C  C1651  1  0.88004109  0.78360104  0.01495115  1
  C  C1652  1  0.88748849  0.55579217  0.01489151  1
  C  C1653  1  0.78360645  0.95854219  0.10051763  1
  C  C1654  1  0.87647632  0.65197724  0.22765480  1
  C  C1655  1  0.94041373  0.57282661  0.20645622  1
  C  C1656  1  0.90442433  0.76254146  0.15214818  1
  C  C1657  1  0.96761485  0.85476791  0.06641887  1
  C  C1658  1  0.82022832  0.74215746  0.14352697  1
  H  H1659  1  0.97512925  0.69773278  0.06446242  1
  H  H1660  1  0.84148812  0.87707305  0.18968649  1
  C  C1661  1  0.83406532  0.57373387  0.14249753  1
  C  C1662  1  0.95087212  0.71910328  0.04932904  1
  H  H1663  1  0.81822741  0.61923750  0.06739002  1
  C  C1664  1  0.77107063  0.80644505  0.08211586  1
  C  C1665  1  0.87686280  0.90648424  0.10113994  1
  H  H1666  1  0.87723104  0.76789970  0.06532802  1
  H  H1667  1  0.90452404  0.60180366  0.15077528  1
  C  C1668  1  0.87002606  0.62564361  0.14615968  1
  H  H1669  1  0.81453457  0.80555499  0.14368989  1
  C  C1670  1  0.82500211  0.93157797  0.18161737  1
  C  C1671  1  0.80340852  0.74201438  0.07867945  1
  C  C1672  1  0.94255127  0.80118138  0.04774226  1
  C  C1673  1  0.85368539  0.76855355  0.08283503  1
  C  C1674  1  0.86377027  0.70902969  0.14718165  1
  C  C1675  1  0.79499102  0.87986191  0.09053677  1
  O  O1676  1  0.93543523  0.77935287  0.22576025  1
  H  H1677  1  0.90127174  0.89300512  0.02921150  1
  H  H1678  1  0.81373852  0.58477251  0.23685314  1
  H  H1679  1  0.91266740  0.88707787  0.10141169  1
  H  H1680  1  0.86959865  0.73392498  0.09924286  1
  C  C1681  1  0.92325133  0.66883029  0.03514983  1
  O  O1682  1  0.89602016  0.83393435  0.15557533  1
  H  H1683  1  0.95906283  0.55476531  0.02341136  1
  O  O1684  1  0.95420412  0.92432992  0.06827413  1
  C  C1685  1  0.77192552  0.94852548  0.23849771  1
  C  C1686  1  0.78297845  0.69169502  0.13698786  1
  C  C1687  1  0.91007650  0.83181591  0.02938642  1
  C  C1688  1  0.77175050  0.86321834  0.24395917  1
  C  C1689  1  0.75458881  0.73527143  0.01407529  1
  C  C1690  1  0.75504409  0.85846325  0.16399883  1
  H  H1691  1  0.76403331  0.74315243  0.03484798  1
  C  C1692  1  0.58346622  0.59997122  0.28071317  1
  C  C1693  1  0.65990420  0.89963578  0.30681171  1
  C  C1694  1  0.65022291  0.82284809  0.29324454  1
  C  C1695  1  0.55572636  0.66374561  0.28915439  1
  C  C1696  1  0.67959226  0.78628553  0.33519058  1
  C  C1697  1  0.54371264  0.72069560  0.27035705  1
  C  C1698  1  0.62829546  0.81981949  0.26819942  1
  C  C1699  1  0.66765438  0.75887499  0.30971301  1
  C  C1700  1  0.66652130  0.67543807  0.30413222  1
  H  H1701  1  0.57165082  0.54603999  0.33643830  1
  H  H1702  1  0.65188256  0.65210679  0.28457862  1
  C  C1703  1  0.67489854  0.87933283  0.33461626  1
  C  C1704  1  0.68559334  0.62482212  0.32213069  1
  H  H1705  1  0.68690415  0.55940739  0.31949696  1
  C  C1706  1  0.69781734  0.65384860  0.34732363  1
  H  H1707  1  0.72111906  0.56656789  0.27213888  1
  C  C1708  1  0.69478281  0.73332336  0.35361777  1
  H  H1709  1  0.65321552  0.90224136  0.35047863  1
  H  H1710  1  0.54039797  0.66770726  0.30934386  1
  C  C1711  1  0.63430461  0.96196296  0.26834185  1
  C  C1712  1  0.71608572  0.59793792  0.36636286  1
  O  O1713  1  0.72160866  0.52670876  0.36158477  1
  H  H1714  1  0.70526591  0.75075151  0.37360895  1
  C  C1715  1  0.53458856  0.93981804  0.42628669  1
  C  C1716  1  0.54931465  0.61596858  0.38699268  1
  C  C1717  1  0.56938986  0.55264027  0.40151347  1
  C  C1718  1  0.56073555  0.93023795  0.44990441  1
  H  H1719  1  0.64873835  0.94700339  0.38980539  1
  H  H1720  1  0.63719456  0.80966091  0.39003564  1
  C  C1721  1  0.63707244  0.70320192  0.41267226  1
  C  C1722  1  0.63283754  0.59573695  0.44751360  1
  C  C1723  1  0.62084716  0.67869840  0.43750549  1
  C  C1724  1  0.60078220  0.72089548  0.45749226  1
  C  C1725  1  0.59087727  0.80165842  0.45050904  1
  C  C1726  1  0.60468648  0.83468841  0.42674104  1
  C  C1727  1  0.62662389  0.78371747  0.40787654  1
  H  H1728  1  0.65928083  0.66602068  0.40025680  1
  O  O1729  1  0.65682226  0.54970143  0.43163838  1
  H  H1730  1  0.71776026  0.83077595  0.42090970  1
  C  C1731  1  0.58823491  0.92374513  0.42739877  1
  C  C1732  1  0.69220968  0.91631229  0.46918655  1
  C  C1733  1  0.71880932  0.95862498  0.40685479  1
  H  H1734  1  0.55622126  0.67849240  0.39114170  1
  C  C1735  1  0.55735568  0.85672935  0.46690126  1
  O  O1736  1  0.61905195  0.57253320  0.46852124  1
  H  H1737  1  0.58827671  0.57104161  0.41884672  1
  H  H1738  1  0.70306074  0.93191774  0.44824170  1
  H  H1739  1  0.59128081  0.69709445  0.47693518  1
  H  H1740  1  0.57035158  0.87059524  0.48734756  1
  O  O1741  1  0.54282257  0.88641203  0.35114995  1
  C  C1742  1  0.59991777  0.53167524  0.29575147  1
  H  H1743  1  0.70981030  0.90705324  0.33665930  1
  C  C1744  1  0.59928105  0.59385244  0.25351893  1
  C  C1745  1  0.65178285  0.94826269  0.48231779  1
  C  C1746  1  0.52966194  0.90101693  0.36999111  1
  C  C1747  1  0.65375262  0.97269269  0.29320787  1
  Zn  Zn1748  1  0.73644055  0.59186302  0.42459543  1
  C  C1749  1  0.72523390  0.87892801  0.48570944  1
  C  C1750  1  0.59710805  0.51569731  0.32318418  1
  C  C1751  1  0.51694945  0.59532282  0.36713150  1
  H  H1752  1  0.52745157  0.58099135  0.44132977  1
  H  H1753  1  0.51639026  0.88984968  0.41712081  1
  H  H1754  1  0.52098064  0.83353962  0.46828544  1
  H  H1755  1  0.52065469  0.77120028  0.27371968  1
  H  H1756  1  0.62425376  0.76218380  0.25904112  1
  O  O1757  1  0.73370618  0.62813286  0.38713617  1
  C  C1758  1  0.67805458  0.98547941  0.39593481  1
  C  C1759  1  0.61905066  0.89255678  0.25548051  1
  C  C1760  1  0.74095573  0.87590168  0.41077322  1
  O  O1761  1  0.74567999  0.64850330  0.46089374  1
  H  H1762  1  0.52270407  0.98819322  0.31057560  1
  H  H1763  1  0.74371016  0.87251742  0.29220982  1
  H  H1764  1  0.74412457  0.85021717  0.39054786  1
  H  H1765  1  0.51112576  0.75893019  0.34853327  1
  C  C1766  1  0.50793212  0.50853709  0.36277295  1
  C  C1767  1  0.62608153  0.51331886  0.25143991  1
  C  C1768  1  0.76466351  0.99098140  0.30101865  1
  C  C1769  1  0.75755582  0.56415373  0.28093356  1
  H  H1770  1  0.85222775  0.76174337  0.49865507  1
  C  C1771  1  0.81053655  0.83999912  0.26030724  1
  O  O1772  1  0.91680284  0.96541688  0.37239342  1
  C  C1773  1  0.89196550  0.80693689  0.45914041  1
  H  H1774  1  0.83616493  0.88356662  0.26717203  1
  C  C1775  1  0.99331628  0.70343882  0.41010266  1
  C  C1776  1  0.83522521  0.99959714  0.44091351  1
  H  H1777  1  0.85583089  0.75630351  0.30592296  1
  O  O1778  1  0.98669143  0.76344856  0.42277752  1
  H  H1779  1  0.99175314  0.91539059  0.43352266  1
  C  C1780  1  0.96183990  0.68409409  0.29866701  1
  C  C1781  1  0.98133554  0.97612908  0.43989193  1
  O  O1782  1  0.99439460  0.68541097  0.47817202  1
  C  C1783  1  0.82351839  0.50461380  0.30455139  1
  C  C1784  1  0.91635796  0.97252074  0.34917735  1
  H  H1785  1  0.79502165  0.89637710  0.47352481  1
  C  C1786  1  0.93060686  0.76267278  0.33210978  1
  O  O1787  1  0.92443587  0.83727080  0.47194802  1
  C  C1788  1  0.84902611  0.72543180  0.28632356  1
  C  C1789  1  0.82634802  0.89698619  0.37167307  1
  C  C1790  1  0.77431937  0.70600132  0.26157658  1
  H  H1791  1  0.89567070  0.96089973  0.46402053  1
  C  C1792  1  0.81940972  0.83376248  0.43357706  1
  H  H1793  1  0.85501277  0.75631438  0.40014313  1
  C  C1794  1  0.80670026  0.66674759  0.34472943  1
  C  C1795  1  0.83651923  0.74965130  0.38118680  1
  H  H1796  1  0.88272946  0.72102186  0.27556533  1
  C  C1797  1  0.94563070  0.83721657  0.28986099  1
  H  H1798  1  0.81271275  0.76908358  0.43176108  1
  H  H1799  1  0.84166301  0.92447362  0.38897498  1
  Zn  Zn1800  1  0.94382315  0.64235827  0.45512709  1
  O  O1801  1  0.83338881  0.52943827  0.37081082  1
  C  C1802  1  0.92152023  0.90313399  0.33039638  1
  O  O1803  1  0.85819432  0.60987846  0.40760908  1
  H  H1804  1  0.97694536  0.69972932  0.25820305  1
  H  H1805  1  0.80175803  0.60422936  0.33782746  1
  C  C1806  1  0.97231709  0.65587277  0.27335359  1
  H  H1807  1  0.92659381  0.95892182  0.29095530  1
  H  H1808  1  0.96146800  0.51247014  0.33318249  1
  O  O1809  1  0.88606531  0.73519031  0.45749971  1
  O  O1810  1  0.98062459  0.63715702  0.41862166  1
  H  H1811  1  0.92490387  0.98573070  0.41064116  1
  H  H1812  1  0.77492929  0.80163685  0.46558054  1
  C  C1813  1  0.94465731  0.76349108  0.30542133  1
  C  C1814  1  0.80585584  0.93884374  0.34986064  1
  C  C1815  1  0.79700930  0.80794010  0.33984800  1
  C  C1816  1  0.79387575  0.97252269  0.42886664  1
  C  C1817  1  0.78449379  0.63408432  0.27732172  1
  H  H1818  1  0.88415454  0.57851380  0.31080139  1
  C  C1819  1  0.98471718  0.52064520  0.29267579  1
  C  C1820  1  0.84803938  0.57701804  0.30303655  1
  C  C1821  1  0.93074125  0.90545200  0.30236230  1
  C  C1822  1  0.82336774  0.81680119  0.36558184  1
  C  C1823  1  0.95424868  0.62574031  0.32012939  1
  O  O1824  1  0.80792110  0.58189899  0.46385645  1
  C  C1825  1  0.81134257  0.76134587  0.26768253  1
  O  O1826  1  0.91169342  0.54589916  0.47633418  1
  H  H1827  1  0.90307022  0.66022811  0.35377834  1
  C  C1828  1  0.93515061  0.67528879  0.34283078  1
  C  C1829  1  0.77476214  0.61403945  0.47518871  1
  C  C1830  1  0.96375096  0.54879644  0.31578860  1
  C  C1831  1  0.97199677  0.57325604  0.26887452  1
  C  C1832  1  0.86581763  0.94376494  0.45115341  1
  C  C1833  1  0.78752353  0.73073727  0.33086468  1
  H  H1834  1  0.76840008  0.72308993  0.31223691  1
  C  C1835  1  0.76472874  0.91146516  0.30554624  1
  C  C1836  1  0.78714549  0.88382215  0.32859538  1
  C  C1837  1  0.77339500  0.84683832  0.48052803  1
  C  C1838  1  0.78774466  0.89004125  0.42421428  1
  C  C1839  1  0.82878124  0.67751024  0.36947868  1
  C  C1840  1  0.92117003  0.83340716  0.34539804  1
  C  C1841  1  0.82876902  0.64135270  0.29031728  1
  H  H1842  1  0.96266091  0.68760501  0.35678355  1
  H  H1843  1  0.91178462  0.83720738  0.36624228  1
  C  C1844  1  0.85741000  0.86290371  0.44670752  1
  C  C1845  1  0.84193567  0.60686723  0.38582630  1
  H  H1846  1  0.95613776  0.83530519  0.26888779  1
  H  H1847  1  0.69471406  0.66576139  0.55304673  1
  C  C1848  1  0.71247827  0.86946696  0.51331366  1
  C  C1849  1  0.67206306  0.89964389  0.52394965  1
  C  C1850  1  0.72727889  0.64794115  0.54327209  1
  C  C1851  1  0.73224056  0.64422721  0.51655352  1
  O  O1852  1  0.65091058  0.77862219  0.57840349  1
  H  H1853  1  0.66127511  0.88929626  0.54434703  1
  H  H1854  1  0.70855408  0.68262369  0.59701144  1
  C  C1855  1  0.65008944  0.83601984  0.58685812  1
  H  H1856  1  0.53672950  0.88128392  0.64650504  1
  C  C1857  1  0.60324390  0.93032286  0.71123932  1
  O  O1858  1  0.58881465  0.76062948  0.63594619  1
  O  O1859  1  0.69827675  0.56887817  0.67579655  1
  C  C1860  1  0.55493897  0.89426412  0.66471970  1
  O  O1861  1  0.58390016  0.55441454  0.63724611  1
  C  C1862  1  0.59417742  0.62436140  0.72628975  1
  C  C1863  1  0.62401716  0.88208231  0.69351850  1
  C  C1864  1  0.59739045  0.85674699  0.67115159  1
  C  C1865  1  0.61186387  0.78838948  0.65523665  1
  O  O1866  1  0.64813949  0.75312754  0.66221873  1
  O  O1867  1  0.71774534  0.74869810  0.71098949  1
  Zn  Zn1868  1  0.66555896  0.66850845  0.69378228  1
  H  H1869  1  0.66072493  0.86359386  0.69570241  1
  H  H1870  1  0.63603016  0.77200102  0.72300404  1
  O  O1871  1  0.58642312  0.66800861  0.70699314  1
  Zn  Zn1872  1  0.53305054  0.67775726  0.63484485  1
  O  O1873  1  0.63030864  0.58803186  0.72706401  1
  C  C1874  1  0.72441030  0.77908561  0.73303921  1
  C  C1875  1  0.53207075  0.94261619  0.68212526  1
  H  H1876  1  0.70197504  0.93339715  0.58622658  1
  C  C1877  1  0.73127101  0.96539924  0.57525238  1
  C  C1878  1  0.73841400  0.53996027  0.67429211  1
  C  C1879  1  0.55488538  0.96200600  0.70618583  1
  H  H1880  1  0.73211771  0.81496494  0.56878145  1
  C  C1881  1  0.61531274  0.97150957  0.73652096  1
  H  H1882  1  0.55545929  0.52690236  0.68428905  1
  H  H1883  1  0.74359308  0.92496586  0.55905992  1
  C  C1884  1  0.64392161  0.78693021  0.74360592  1
  C  C1885  1  0.74119949  0.66675534  0.60439436  1
  H  H1886  1  0.74116593  0.72096103  0.64349724  1
  C  C1887  1  0.51700188  0.67167955  0.74392143  1
  H  H1888  1  0.60759706  0.96680848  0.51784392  1
  C  C1889  1  0.63793894  0.94102514  0.50898588  1
  H  H1890  1  0.51155560  0.71337335  0.72692931  1
  H  H1891  1  0.67813101  0.50672586  0.63860320  1
  C  C1892  1  0.55567155  0.62162775  0.74625033  1
  O  O1893  1  0.74833154  0.60065829  0.74454049  1
  H  H1894  1  0.70405668  0.66829098  0.50457708  1
  C  C1895  1  0.99929652  0.77498432  0.64933861  1
  O  O1896  1  0.91736663  0.52136936  0.61379183  1
  H  H1897  1  0.99804501  0.56502369  0.66310643  1
  O  O1898  1  0.99959755  0.82820852  0.51682961  1
  C  C1899  1  0.83431216  0.61843716  0.61749977  1
  C  C1900  1  0.99790256  0.50726991  0.70030988  1
  H  H1901  1  0.98270466  0.85233223  0.53144582  1
  C  C1902  1  0.76674549  0.61873510  0.55831424  1
  C  C1903  1  0.77005498  0.99294028  0.59339859  1
  C  C1904  1  0.75244205  0.83005911  0.52799649  1
  O  O1905  1  0.93295155  0.53024895  0.72808100  1
  O  O1906  1  0.94360081  0.60812569  0.69445828  1
  Zn  Zn1907  1  0.98122304  0.98522241  0.59996583  1
  C  C1908  1  0.78773990  0.81976063  0.50952380  1
  C  C1909  1  0.80241560  0.76860290  0.56011437  1
  O  O1910  1  0.76322310  0.79777391  0.74143946  1
  C  C1911  1  0.82793974  0.68577997  0.65984571  1
  C  C1912  1  0.90518371  0.94935687  0.55893105  1
  O  O1913  1  0.86695056  0.66224419  0.66681292  1
  O  O1914  1  0.88927020  0.93184141  0.65398829  1
  C  C1915  1  0.76068894  0.68777153  0.62863511  1
  C  C1916  1  0.95504917  0.55168138  0.70894485  1
  O  O1917  1  0.93944095  0.79348980  0.72272651  1
  H  H1918  1  0.98587267  0.56415790  0.58150952  1
  Zn  Zn1919  1  0.89410242  0.70006119  0.70699815  1
  C  C1920  1  0.97332886  0.70046442  0.64127318  1
  H  H1921  1  0.87007220  0.60752559  0.62490786  1
  C  C1922  1  0.88282794  0.99219846  0.53685486  1
  O  O1923  1  0.86027833  0.84051883  0.62898664  1
  O  O1924  1  0.95170130  0.70068870  0.62047193  1
  H  H1925  1  0.83851086  0.54840940  0.51111615  1
  C  C1926  1  0.83386109  0.99647689  0.53543526  1
  H  H1927  1  0.81167812  0.75134400  0.57994767  1
  O  O1928  1  0.90968067  0.70330525  0.53021654  1
  Zn  Zn1929  1  0.90796251  0.79550584  0.60247522  1
  O  O1930  1  0.76691666  0.54410124  0.69189897  1
  C  C1931  1  0.83758642  0.55458255  0.56990407  1
  C  C1932  1  0.91413870  0.83350088  0.73716627  1
  C  C1933  1  0.88004175  0.72033922  0.54789151  1
  C  C1934  1  0.86178614  0.91099152  0.63670453  1
  C  C1935  1  0.80472517  0.57866277  0.54659340  1
  Zn  Zn1936  1  0.79415018  0.63996652  0.71410994  1
  H  H1937  1  0.87532264  0.56869991  0.56603512  1
  C  C1938  1  0.83558147  0.75745773  0.54032488  1
  C  C1939  1  0.82772436  0.77825424  0.51323290  1
  C  C1940  1  0.83329132  0.97420707  0.62284809  1
  O  O1941  1  0.97240683  0.85763135  0.60683042  1
  C  C1942  1  0.80813246  0.57525237  0.52012607  1
  C  C1943  1  0.77164840  0.62802180  0.58661312  1
  O  O1944  1  0.88176765  0.90471011  0.57240316  1
  Zn  Zn1945  1  0.97574844  0.71756220  0.51725410  1
  H  H1946  1  0.81451132  0.96574054  0.55177134  1
  C  C1947  1  0.79843508  0.94098393  0.60779653  1
  C  C1948  1  0.81735852  0.59476501  0.59347927  1
  O  O1949  1  0.94863209  0.95578526  0.56413658  1
  O  O1950  1  0.85059870  0.65808499  0.73205610  1
  Zn  Zn1951  1  0.95465138  0.85325085  0.67088354  1
  C  C1952  1  0.80576932  0.66524781  0.63346814  1
  O  O1953  1  0.87067122  0.82390458  0.73653213  1
  C  C1954  1  0.75956818  0.80053223  0.55397876  1
  O  O1955  1  0.89289622  0.71188470  0.57094187  1
  O  O1956  1  0.80379987  0.72310610  0.67599066  1
  C  C1957  1  0.77266050  0.60845096  0.50444304  1
  H  H1958  1  0.79523978  0.87848871  0.60535429  1
  H  H1959  1  0.95762602  0.66327656  0.65904269  1
  C  C1960  1  0.65997918  0.82658003  0.82546427  1
  H  H1961  1  0.67611736  0.88508835  0.83029313  1
  C  C1962  1  0.60931312  0.81557770  0.83442069  1
  H  H1963  1  0.68547891  0.78475704  0.83558700  1
  C  C1964  1  0.65905544  0.80955212  0.79557111  1
  C  C1965  1  0.61202459  0.79983745  0.78685432  1
  C  C1966  1  0.58272508  0.79706839  0.81148887  1
  C  C1967  1  0.69751691  0.80771123  0.77993341  1
  C  C1968  1  0.58950530  0.82478610  0.85883673  1
  C  C1969  1  0.58031254  0.62019976  0.84283204  1
  H  H1970  1  0.57622334  0.67923732  0.83309716  1
  H  H1971  1  0.62435882  0.66905218  0.79280071  1
  C  C1972  1  0.65291189  0.62402559  0.79718873  1
  C  C1973  1  0.65272368  0.56390600  0.81736483  1
  C  C1974  1  0.68918671  0.61657108  0.78089920  1
  C  C1975  1  0.53400317  0.78866139  0.81231378  1
  C  C1976  1  0.61572284  0.55964844  0.83694494  1
  H  H1977  1  0.69884490  0.60375913  0.84722937  1
  H  H1978  1  0.69014841  0.65433314  0.76306415  1
  C  C1979  1  0.54156219  0.81005641  0.85984083  1
  C  C1980  1  0.72277465  0.55458669  0.78509756  1
  C  C1981  1  0.52945550  0.55618561  0.78525588  1
  C  C1982  1  0.55053804  0.60566152  0.86340807  1
  C  C1983  1  0.70216395  0.71573334  0.86963444  1
  C  C1984  1  0.72101705  0.79478131  0.87226005  1
  C  C1985  1  0.60473231  0.79502667  0.75979418  1
  H  H1986  1  0.73282585  0.81378965  0.78895394  1
  H  H1987  1  0.61269241  0.83435817  0.87651464  1
  H  H1988  1  0.52352334  0.64684280  0.86954134  1
  H  H1989  1  0.68347932  0.90050725  0.89045168  1
  C  C1990  1  0.51894190  0.81982587  0.88694509  1
  C  C1991  1  0.70000455  0.84014247  0.89521480  1
  H  H1992  1  0.53942578  0.79236984  0.90322532  1
  H  H1993  1  0.64312377  0.57906347  0.88627143  1
  C  C1994  1  0.70621348  0.57808462  0.96585252  1
  C  C1995  1  0.66623464  0.70359852  0.89023313  1
  C  C1996  1  0.63876454  0.63554659  0.89539668  1
  C  C1997  1  0.66354620  0.77649692  0.90480686  1
  H  H1998  1  0.63153186  0.83463439  0.93722387  1
  C  C1999  1  0.63274262  0.78043804  0.92512099  1
  H  H2000  1  0.58477970  0.59494946  0.92044851  1
  C  C2001  1  0.60963103  0.64166751  0.91638247  1
  C  C2002  1  0.60676483  0.71162253  0.93163547  1
  C  C2003  1  0.57205592  0.71582558  0.95226392  1
  O  O2004  1  0.56950448  0.77651474  0.96723865  1
  O  O2005  1  0.54820333  0.65765313  0.95817471  1
  O  O2006  1  0.69886728  0.55305563  0.94469557  1
  H  H2007  1  0.72652384  0.85356190  0.90975334  1
  H  H2008  1  0.51383698  0.77854029  0.79465989  1
  C  C2009  1  0.51390082  0.79808777  0.83715567  1
  C  C2010  1  0.56248319  0.56219300  0.76589944  1
  C  C2011  1  0.71643931  0.65861497  0.85120268  1
  H  H2012  1  0.63609596  0.94936910  0.90399309  1
  C  C2013  1  0.72733690  0.65155198  0.97769549  1
  C  C2014  1  0.61452621  0.97266651  0.88733606  1
  O  O2015  1  0.57306770  0.96769900  0.89428906  1
  C  C2016  1  0.55699583  0.53395219  0.87795579  1
  H  H2017  1  0.56872227  0.78990665  0.75306964  1
  H  H2018  1  0.73427154  0.71040814  0.93767623  1
  C  C2019  1  0.74037113  0.71106820  0.95905073  1
  H  H2020  1  0.56318364  0.93003887  0.99823111  1
  C  C2021  1  0.52582867  0.51500300  0.89977545  1
  O  O2022  1  0.50108042  0.57118575  0.90794955  1
  H  H2023  1  0.71647341  0.98609157  0.90540197  1
  H  H2024  1  0.59011810  0.51712573  0.76464062  1
  C  C2025  1  0.74892323  0.68361406  0.83326604  1
  Zn  Zn2026  1  0.55284592  0.99865441  0.83858535  1
  Zn  Zn2027  1  0.69102122  0.51049992  0.99945859  1
  Zn  Zn2028  1  0.60890823  0.81656615  0.99945609  1
  H  H2029  1  0.62349463  0.92689998  0.75129377  1
  C  C2030  1  0.68820326  0.79449601  0.75308925  1
  C  C2031  1  0.99429177  0.95582451  0.77990510  1
  C  C2032  1  0.80826823  0.98763911  0.97199410  1
  H  H2033  1  0.79635710  0.54961940  0.95805098  1
  H  H2034  1  0.75601425  0.87031118  0.93609637  1
  C  C2035  1  0.76479974  0.76280052  0.83447704  1
  O  O2036  1  0.79154643  0.51011927  0.76215976  1
  H  H2037  1  0.77164895  0.87413938  0.85481063  1
  C  C2038  1  0.75686863  0.55100899  0.76279429  1
  H  H2039  1  0.75788976  0.64758833  0.81607408  1
  C  C2040  1  0.90054770  0.95162150  0.76434417  1
  O  O2041  1  0.81525362  0.72933287  0.79941491  1
  C  C2042  1  0.79079509  0.91061844  0.97413499  1
  H  H2043  1  0.81644666  0.68149279  0.97939590  1
  Zn  Zn2044  1  0.82475060  0.73684486  0.75876559  1
  C  C2045  1  0.80090647  0.78535972  0.81449468  1
  O  O2046  1  0.81660009  0.85174508  0.81365379  1
  C  C2047  1  0.93400392  0.89832808  0.75424893  1
  H  H2048  1  0.98145307  0.59958128  0.86782526  1
  C  C2049  1  0.83251331  0.62618145  0.98604935  1
  C  C2050  1  0.99336651  0.53608544  0.90399513  1
  C  C2051  1  0.98179395  0.90290821  0.76004575  1
  O  O2052  1  0.91464442  0.52513644  0.89002017  1
  C  C2053  1  0.76779510  0.79703056  0.99636370  1
  C  C2054  1  0.75377639  0.81827602  0.85353594  1
  C  C2055  1  0.78213662  0.84921483  0.95161206  1
  H  H2056  1  0.86294724  0.95014011  0.75847642  1
  C  C2057  1  0.82271755  0.55387911  0.97423114  1
  H  H2058  1  0.81431960  0.83110560  0.94105877  1
  O  O2059  1  0.92972903  0.53952563  0.81462679  1
  C  C2060  1  0.76348080  0.78019056  0.96787861  1
  H  H2061  1  0.85574119  0.80567458  0.99888531  1
  C  C2062  1  0.78659399  0.87702992  0.99992472  1
  Zn  Zn2063  1  0.86898636  0.56132051  0.75032116  1
