# generated using pymatgen
data_Cu2H13C29NO9
_symmetry_space_group_name_H-M   'P 1'
_cell_length_a   31.29068913
_cell_length_b   27.27846655
_cell_length_c   22.05166297
_cell_angle_alpha   90.00000000
_cell_angle_beta   90.00000000
_cell_angle_gamma   90.00000000
_symmetry_Int_Tables_number   1
_chemical_formula_structural   Cu2H13C29NO9
_chemical_formula_sum   'Cu48 H312 C696 N24 O216'
_cell_volume   18822.46191793
_cell_formula_units_Z   24
loop_
 _symmetry_equiv_pos_site_id
 _symmetry_equiv_pos_as_xyz
  1  'x, y, z'
loop_
 _atom_site_type_symbol
 _atom_site_label
 _atom_site_symmetry_multiplicity
 _atom_site_fract_x
 _atom_site_fract_y
 _atom_site_fract_z
 _atom_site_occupancy
  O  O0  1  0.14791088  0.08481236  0.12139223  1
  C  C1  1  0.12315218  0.05287888  0.14477016  1
  Cu  Cu2  1  0.14553951  0.10481898  0.04045299  1
  C  C3  1  0.08743589  0.06723090  0.18357603  1
  O  O4  1  0.10520576  0.15139373  0.06283468  1
  H  H5  1  0.10125762  0.14336891  0.18103045  1
  C  C6  1  0.07920616  0.11568874  0.19999730  1
  C  C7  1  0.05956288  0.03110516  0.20490170  1
  C  C8  1  0.05191993  0.20427202  0.01698134  1
  H  H9  1  0.01997109  0.15689794  0.08402661  1
  O  O10  1  0.18993365  0.05579461  0.01536837  1
  O  O11  1  0.22770659  0.22759022  0.14343782  1
  C  C12  1  0.09530798  0.18293205  0.02412587  1
  C  C13  1  0.01775695  0.18847849  0.05235295  1
  H  H14  1  0.22673359  0.01450851  0.09774102  1
  C  C15  1  0.04335952  0.12741623  0.23429691  1
  O  O16  1  0.05902945  0.00440386  0.03182350  1
  O  O17  1  0.12748461  0.00875510  0.13095488  1
  O  O18  1  0.23954475  0.17854882  0.00014993  1
  H  H19  1  0.19258733  0.20004189  0.24463330  1
  C  C20  1  0.03072087  0.18029687  0.24238385  1
  C  C21  1  0.02140648  0.04178605  0.23530509  1
  C  C22  1  0.05656972  0.22411862  0.23611647  1
  H  H23  1  0.09125330  0.21928902  0.22827532  1
  C  C24  1  0.46717092  0.00917310  0.16436376  1
  C  C25  1  0.49164912  0.04137035  0.13168780  1
  O  O26  1  0.34531091  0.03613222  0.03508751  1
  C  C27  1  0.39819947  0.19800648  0.19976999  1
  C  C28  1  0.42696517  0.06008148  0.06832118  1
  O  O29  1  0.33861628  0.19677021  0.13539196  1
  H  H30  1  0.40901183  0.08021778  0.03051579  1
  C  C31  1  0.46911128  0.06830714  0.08638038  1
  C  C32  1  0.37443066  0.21479834  0.14652528  1
  C  C33  1  0.43422304  0.22384660  0.21918642  1
  C  C34  1  0.40504724  0.02271655  0.10044950  1
  C  C35  1  0.49125183  0.11092856  0.05361237  1
  H  H36  1  0.35735173  0.13268311  0.20759374  1
  C  C37  1  0.36127642  0.01675554  0.08059358  1
  Cu  Cu38  1  0.28527319  0.23297108  0.12040824  1
  C  C39  1  0.38447558  0.15503249  0.22767442  1
  O  O40  1  0.39097981  0.24996626  0.11768713  1
  C  C41  1  0.17834175  0.49819614  0.03928656  1
  C  C42  1  0.10347451  0.47968360  0.06101159  1
  O  O43  1  0.00853136  0.42444186  0.18219043  1
  C  C44  1  0.20178736  0.26246876  0.14646551  1
  O  O45  1  0.19880665  0.29436009  0.10440775  1
  C  C46  1  0.18042299  0.27175658  0.20430186  1
  H  H47  1  0.08307887  0.36917598  0.18959066  1
  H  H48  1  0.15136150  0.34281861  0.17533053  1
  C  C49  1  0.15605211  0.31284456  0.20884781  1
  H  H50  1  0.16725118  0.37921687  0.08862756  1
  H  H51  1  0.08987447  0.40364269  0.08378722  1
  C  C52  1  0.11540603  0.43045655  0.07683466  1
  C  C53  1  0.15849018  0.41707059  0.07653255  1
  C  C54  1  0.18981614  0.45190538  0.06118665  1
  C  C55  1  0.03296591  0.45300297  0.20475882  1
  H  H56  1  0.05135834  0.30905591  0.04042006  1
  C  C57  1  0.22927108  0.46792068  0.21910611  1
  C  C58  1  0.19020443  0.48314483  0.19593778  1
  H  H59  1  0.16164529  0.45984776  0.19033299  1
  H  H60  1  0.04360873  0.47953677  0.10366457  1
  C  C61  1  0.05109630  0.34149287  0.01284651  1
  C  C62  1  0.01415773  0.37077218  0.00886066  1
  C  C63  1  0.09004987  0.39316020  0.22922637  1
  C  C64  1  0.23802895  0.44210126  0.06901416  1
  C  C65  1  0.07447869  0.44123739  0.23666413  1
  O  O66  1  0.13678237  0.29734526  0.01533083  1
  H  H67  1  0.23163552  0.36419195  0.08533419  1
  Cu  Cu68  1  0.19309387  0.27886229  0.01955421  1
  N  N69  1  0.06361352  0.49930862  0.07536822  1
  C  C70  1  0.03906294  0.26987741  0.24168789  1
  H  H71  1  0.05866866  0.30288497  0.23666290  1
  H  H72  1  0.23180271  0.42902039  0.22906758  1
  O  O73  1  0.40144347  0.38083506  0.16470736  1
  C  C74  1  0.37344820  0.43543438  0.24299833  1
  C  C75  1  0.46354428  0.29776375  0.04748956  1
  O  O76  1  0.25180102  0.25788669  0.00684464  1
  O  O77  1  0.28718089  0.30372013  0.11872180  1
  C  C78  1  0.26880787  0.48010166  0.07336900  1
  Cu  Cu79  1  0.39733530  0.31589356  0.13329028  1
  C  C80  1  0.31144190  0.46996381  0.07676784  1
  C  C81  1  0.33327674  0.44394453  0.22049302  1
  O  O82  1  0.43950661  0.38739107  0.24716789  1
  O  O83  1  0.34915305  0.32630964  0.08242245  1
  H  H84  1  0.32359111  0.41795701  0.18369909  1
  O  O85  1  0.48390495  0.31536378  0.07936326  1
  H  H86  1  0.44915403  0.25110815  0.19090590  1
  C  C87  1  0.29702113  0.38710445  0.08549208  1
  C  C88  1  0.32817785  0.42243111  0.08045658  1
  C  C89  1  0.40866686  0.39887191  0.21899879  1
  H  H90  1  0.36229917  0.41574373  0.08023553  1
  C  C91  1  0.31117986  0.33643467  0.09767636  1
  C  C92  1  0.25303730  0.39513562  0.08091113  1
  C  C93  1  0.30908755  0.48307400  0.24597807  1
  Cu  Cu94  1  0.15576836  0.10479892  0.34707116  1
  O  O95  1  0.20274438  0.06846305  0.35852190  1
  C  C96  1  0.02230034  0.11082522  0.37969636  1
  C  C97  1  0.06617457  0.12546431  0.36373862  1
  H  H98  1  0.04034428  0.03392243  0.37743886  1
  O  O99  1  0.09524214  0.09338030  0.35913624  1
  O  O100  1  0.07279207  0.16954515  0.35051929  1
  C  C101  1  0.15877349  0.21346223  0.35548046  1
  O  O102  1  0.17463107  0.17110808  0.34796115  1
  C  C103  1  0.20825121  0.02191232  0.34089194  1
  Cu  Cu104  1  0.08252816  0.22661582  0.39970949  1
  O  O105  1  0.13927926  0.22233188  0.40536820  1
  C  C106  1  0.01377473  0.06116835  0.38699395  1
  O  O107  1  0.19991149  0.00833581  0.29170381  1
  H  H108  1  0.23832042  0.05003880  0.44189932  1
  C  C109  1  0.24167984  0.01064693  0.43785971  1
  C  C110  1  0.15888265  0.24881524  0.30630256  1
  C  C111  1  0.01421358  0.09055836  0.25063834  1
  C  C112  1  0.17972299  0.23690780  0.25193107  1
  C  C113  1  0.36828707  0.00265431  0.34606750  1
  C  C114  1  0.41065616  0.00792971  0.32410383  1
  C  C115  1  0.39700714  0.09276042  0.30413954  1
  H  H116  1  0.32633528  0.05580206  0.46480666  1
  C  C117  1  0.33878234  0.04416984  0.34425112  1
  H  H118  1  0.45877816  0.05811384  0.28751788  1
  C  C119  1  0.35247930  0.08796533  0.32195435  1
  H  H120  1  0.46306397  0.15606070  0.34122200  1
  C  C121  1  0.42599690  0.05301950  0.30354757  1
  H  H122  1  0.33045783  0.11820330  0.31784001  1
  H  H123  1  0.30597708  0.03698218  0.35940180  1
  C  C124  1  0.44425462  0.16851871  0.30236449  1
  C  C125  1  0.43080552  0.02188336  0.45751189  1
  H  H126  1  0.39988232  0.03791567  0.44490246  1
  C  C127  1  0.40909397  0.14246404  0.27885603  1
  C  C128  1  0.45744825  0.20929066  0.27057902  1
  O  O129  1  0.37456000  0.12922882  0.48564680  1
  C  C130  1  0.49568257  0.23942328  0.28047795  1
  C  C131  1  0.46440818  0.04995454  0.48592975  1
  O  O132  1  0.12787214  0.49858577  0.45484308  1
  C  C133  1  0.14058192  0.32713469  0.26649397  1
  C  C134  1  0.12328467  0.37974674  0.26930485  1
  C  C135  1  0.01067167  0.37617847  0.39186587  1
  H  H136  1  0.15207303  0.48712267  0.34129602  1
  O  O137  1  0.10591866  0.31985099  0.45442881  1
  H  H138  1  0.11520606  0.39943943  0.44523104  1
  C  C139  1  0.09679533  0.47664135  0.27513435  1
  O  O140  1  0.04920008  0.27996957  0.42309706  1
  C  C141  1  0.02662957  0.46474857  0.39563296  1
  C  C142  1  0.14072748  0.29444307  0.31595195  1
  C  C143  1  0.06605115  0.45168822  0.41592938  1
  C  C144  1  0.08265503  0.40594298  0.42515315  1
  C  C145  1  0.05214094  0.36816495  0.41395835  1
  C  C146  1  0.06903539  0.31944788  0.42997377  1
  H  H147  1  0.12505377  0.30566563  0.35747093  1
  H  H148  1  0.17041844  0.39614514  0.33854837  1
  C  C149  1  0.13335272  0.46131755  0.31064407  1
  C  C150  1  0.14597501  0.41160459  0.31059415  1
  C  C151  1  0.42227650  0.38815173  0.49657102  1
  H  H152  1  0.43467428  0.42257041  0.47581557  1
  C  C153  1  0.39247158  0.46207117  0.28895605  1
  H  H154  1  0.42550023  0.45485230  0.30234837  1
  C  C155  1  0.48495860  0.33664391  0.46689367  1
  O  O156  1  0.49913711  0.37617502  0.44243446  1
  C  C157  1  0.44399640  0.34368184  0.49665216  1
  O  O158  1  0.05525539  0.02287925  0.68786070  1
  H  H159  1  0.24418582  0.06235826  0.66235149  1
  C  C160  1  0.26319821  0.06005388  0.62087999  1
  H  H161  1  0.27597745  0.14253284  0.67449611  1
  C  C162  1  0.29265643  0.09818649  0.60561711  1
  N  N163  1  0.29455944  0.14047858  0.63716405  1
  C  C164  1  0.31718959  0.18090139  0.62013301  1
  C  C165  1  0.34570919  0.17590862  0.56667149  1
  C  C166  1  0.31197412  0.22856569  0.64880722  1
  C  C167  1  0.42527553  0.03020931  0.67381076  1
  H  H168  1  0.44411028  0.07720319  0.59938606  1
  C  C169  1  0.46977396  0.16562187  0.56723956  1
  C  C170  1  0.45290705  0.06448536  0.64554103  1
  C  C171  1  0.32109935  0.09446245  0.55175135  1
  C  C172  1  0.48252853  0.11968692  0.54082770  1
  H  H173  1  0.43552690  0.17436173  0.55519903  1
  C  C174  1  0.36405513  0.21763392  0.54347959  1
  H  H175  1  0.29522526  0.22623995  0.69262298  1
  H  H176  1  0.36895611  0.03420087  0.61521631  1
  C  C177  1  0.35188603  0.13155319  0.53137240  1
  C  C178  1  0.28145795  0.02078905  0.52805313  1
  C  C179  1  0.25759667  0.02046655  0.58358013  1
  H  H180  1  0.48357821  0.22907587  0.62430270  1
  N  N181  1  0.38466581  0.01894188  0.65271924  1
  H  H182  1  0.29865757  0.05430223  0.73320778  1
  C  C183  1  0.43785793  0.01167392  0.73276214  1
  C  C184  1  0.49618920  0.19558298  0.60122141  1
  C  C185  1  0.49145496  0.08075948  0.67169202  1
  H  H186  1  0.38545854  0.21299526  0.50356662  1
  C  C187  1  0.45643173  0.24748937  0.74048367  1
  C  C188  1  0.40188657  0.12767514  0.74828083  1
  H  H189  1  0.42734242  0.10282916  0.72890288  1
  N  N190  1  0.44907978  0.19969832  0.74629177  1
  H  H191  1  0.47517230  0.17504116  0.74375095  1
  C  C192  1  0.31066192  0.05699000  0.51035000  1
  H  H193  1  0.41994616  0.10825837  0.50656275  1
  N  N194  1  0.45124879  0.09170803  0.51241260  1
  C  C195  1  0.00112892  0.40458268  0.55794173  1
  H  H196  1  0.00955376  0.47046328  0.60308627  1
  C  C197  1  0.09761520  0.49736552  0.72825561  1
  H  H198  1  0.00340743  0.37828600  0.71523679  1
  H  H199  1  0.10663199  0.41292903  0.67688510  1
  C  C200  1  0.13847292  0.42948841  0.68382015  1
  C  C201  1  0.17647373  0.40880104  0.66173285  1
  C  C202  1  0.04433944  0.38477122  0.57830680  1
  O  O203  1  0.06090884  0.40939664  0.61388023  1
  O  O204  1  0.14300019  0.34289523  0.61294867  1
  C  C205  1  0.17994056  0.35966479  0.62960060  1
  O  O206  1  0.06086907  0.34529783  0.55616674  1
  Cu  Cu207  1  0.11898691  0.33335006  0.53404587  1
  C  C208  1  0.21554582  0.43138816  0.66905699  1
  C  C209  1  0.21652804  0.47818348  0.69821434  1
  O  O210  1  0.21256576  0.33890865  0.61726472  1
  C  C211  1  0.14126273  0.47465012  0.71329327  1
  H  H212  1  0.24587261  0.41479551  0.64913966  1
  C  C213  1  0.38480325  0.39409570  0.53022691  1
  H  H214  1  0.40784065  0.36219127  0.73801193  1
  H  H215  1  0.43808520  0.26574192  0.51503564  1
  C  C216  1  0.38474808  0.30696556  0.55197006  1
  C  C217  1  0.33660496  0.26748630  0.62914337  1
  C  C218  1  0.36114783  0.26217540  0.57502336  1
  O  O219  1  0.28870845  0.48453570  0.68287526  1
  C  C220  1  0.44950627  0.47453602  0.67248721  1
  H  H221  1  0.33826578  0.30193110  0.65316863  1
  C  C222  1  0.43324828  0.33234948  0.73306922  1
  C  C223  1  0.42176627  0.28461924  0.74336750  1
  H  H224  1  0.41221429  0.41135935  0.69379044  1
  O  O225  1  0.33249811  0.45301999  0.56728842  1
  C  C226  1  0.48266832  0.39809537  0.69923846  1
  C  C227  1  0.36751128  0.44353620  0.53765584  1
  C  C228  1  0.48991273  0.49543547  0.66641789  1
  C  C229  1  0.36475574  0.35305666  0.55778173  1
  O  O230  1  0.37390090  0.48314418  0.66813811  1
  C  C231  1  0.47495707  0.34584074  0.71657942  1
  H  H232  1  0.33176977  0.35706443  0.57800421  1
  C  C233  1  0.44513140  0.42513134  0.68910322  1
  C  C234  1  0.42439291  0.30236617  0.52129670  1
  O  O235  1  0.38378865  0.47616609  0.50544411  1
  C  C236  1  0.21570029  0.11741018  0.83659980  1
  C  C237  1  0.18025159  0.13927081  0.87313514  1
  O  O238  1  0.14516606  0.11674201  0.87445840  1
  O  O239  1  0.18493306  0.17812246  0.90202933  1
  C  C240  1  0.20490523  0.07109104  0.81290291  1
  H  H241  1  0.17501538  0.05050930  0.82024101  1
  Cu  Cu242  1  0.12908742  0.07052798  0.93192425  1
  O  O243  1  0.07484373  0.03879046  0.94438804  1
  C  C244  1  0.04647462  0.23728963  0.96879841  1
  C  C245  1  0.23809293  0.05247437  0.77627678  1
  O  O246  1  0.12319949  0.19771194  0.98697330  1
  H  H247  1  0.01664971  0.09012474  0.90077067  1
  H  H248  1  0.07340691  0.24727279  0.93643491  1
  Cu  Cu249  1  0.18145317  0.18187324  0.99334796  1
  O  O250  1  0.15732186  0.00974633  0.94765794  1
  C  C251  1  0.17969022  0.01483945  0.99395566  1
  C  C252  1  0.04970830  0.03252363  0.98849968  1
  C  C253  1  0.00997059  0.06138579  0.99037335  1
  C  C254  1  0.22136277  0.00466945  0.75186053  1
  C  C255  1  0.25427282  0.14172605  0.82924713  1
  H  H256  1  0.48826914  0.00503913  0.79781348  1
  H  H257  1  0.26124902  0.17662986  0.85399089  1
  C  C258  1  0.26351583  0.21583788  0.99221659  1
  C  C259  1  0.28379244  0.11980792  0.79154754  1
  H  H260  1  0.29317850  0.12765851  0.96018667  1
  C  C261  1  0.30612647  0.20736876  0.96470244  1
  H  H262  1  0.41904247  0.17121752  0.90773479  1
  C  C263  1  0.35485907  0.14922691  0.92806597  1
  C  C264  1  0.38670484  0.18374070  0.92258994  1
  C  C265  1  0.31435980  0.15801446  0.95138040  1
  O  O266  1  0.39722611  0.08234445  0.89045151  1
  C  C267  1  0.36400417  0.09426194  0.91121137  1
  O  O268  1  0.33439316  0.06293563  0.91975268  1
  H  H269  1  0.45846104  0.22198136  0.88975691  1
  C  C270  1  0.32747768  0.14173102  0.78018644  1
  C  C271  1  0.33408985  0.19289924  0.78318870  1
  H  H272  1  0.30765010  0.21350677  0.80243188  1
  O  O273  1  0.49226266  0.14233088  0.85375044  1
  C  C274  1  0.37400703  0.23296629  0.93148745  1
  C  C275  1  0.37405455  0.21274173  0.76593860  1
  H  H276  1  0.47379647  0.08524901  0.96962312  1
  C  C277  1  0.36257445  0.10984193  0.76162926  1
  H  H278  1  0.35970652  0.07009581  0.75146684  1
  Cu  Cu279  1  0.33904875  0.00232358  0.95995564  1
  C  C280  1  0.27526748  0.07608869  0.76016425  1
  C  C281  1  0.33323778  0.24515343  0.95385533  1
  C  C282  1  0.48994400  0.11537950  0.99025597  1
  C  C283  1  0.40815261  0.18021993  0.75178259  1
  C  C284  1  0.47712255  0.02355164  0.75709403  1
  H  H285  1  0.11213807  0.47827434  0.88340210  1
  C  C286  1  0.04643489  0.47924715  0.91462751  1
  H  H287  1  0.06753610  0.30859726  0.88824711  1
  C  C288  1  0.03401159  0.30920611  0.87363314  1
  H  H289  1  0.11307205  0.40427741  0.91034667  1
  C  C290  1  0.08439944  0.39760944  0.93692486  1
  C  C291  1  0.02905054  0.33458796  0.81961863  1
  C  C292  1  0.04868914  0.42873276  0.94120778  1
  O  O293  1  0.14875748  0.33342697  0.92848227  1
  H  H294  1  0.05917434  0.34833854  0.79848700  1
  C  C295  1  0.12571726  0.32812286  0.97088831  1
  C  C296  1  0.08294566  0.35622657  0.97469453  1
  C  C297  1  0.00690967  0.25796407  0.96205096  1
  H  H298  1  0.06915564  0.43113861  0.76542539  1
  C  C299  1  0.01217069  0.41391420  0.97519951  1
  C  C300  1  0.02429000  0.49016424  0.75876619  1
  C  C301  1  0.06342409  0.46957100  0.75366708  1
  H  H302  1  0.49071030  0.36184248  0.97713870  1
  C  C303  1  0.49174730  0.46746629  0.81689255  1
  C  C304  1  0.47608784  0.29723616  0.88117239  1
  C  C305  1  0.46840895  0.43075802  0.85426224  1
  C  C306  1  0.46141480  0.34766962  0.88344193  1
  C  C307  1  0.40595415  0.27224073  0.91911471  1
  C  C308  1  0.41726710  0.49764957  0.88631682  1
  O  O309  1  0.37970340  0.42620426  0.95920171  1
  O  O310  1  0.35341563  0.29544943  0.78769148  1
  H  H311  1  0.32398562  0.28265031  0.96434171  1
  C  C312  1  0.37971727  0.26800816  0.76611026  1
  C  C313  1  0.42043719  0.36146463  0.91130285  1
  H  H314  1  0.47565932  0.45146527  0.98531702  1
  N  N315  1  0.48198028  0.38515074  0.85625838  1
  C  C316  1  0.43088885  0.44908057  0.88664346  1
  C  C317  1  0.44821334  0.25947848  0.89742047  1
  C  C318  1  0.39477332  0.32263943  0.92710818  1
  C  C319  1  0.40645970  0.41379406  0.92311371  1
  H  H320  1  0.36304181  0.33279424  0.94706429  1
  N  N321  1  0.14581987  0.55331049  0.16936697  1
  C  C322  1  0.14210186  0.60251215  0.15587900  1
  C  C323  1  0.17705049  0.63650493  0.15337252  1
  C  C324  1  0.09489080  0.66935903  0.12556282  1
  C  C325  1  0.09999606  0.61981745  0.13800205  1
  C  C326  1  0.17320855  0.68789124  0.14434749  1
  C  C327  1  0.13053565  0.70355950  0.13432366  1
  H  H328  1  0.06172686  0.67948943  0.11223944  1
  C  C329  1  0.18543109  0.53371568  0.17983001  1
  C  C330  1  0.22343685  0.56602876  0.18005473  1
  H  H331  1  0.20128181  0.71074218  0.14173412  1
  C  C332  1  0.22233437  0.61872021  0.16523670  1
  H  H333  1  0.07343821  0.59530972  0.13369602  1
  H  H334  1  0.11826369  0.53255668  0.16933034  1
  C  C335  1  0.05115040  0.54369163  0.05032846  1
  C  C336  1  0.13518229  0.51184939  0.03619648  1
  H  H337  1  0.20262689  0.52344437  0.02586974  1
  C  C338  1  0.00286271  0.60479821  0.21420727  1
  C  C339  1  0.05250055  0.54052275  0.24143579  1
  C  C340  1  0.00838161  0.56079130  0.05167782  1
  C  C341  1  0.08298528  0.57599659  0.02385556  1
  C  C342  1  0.12977469  0.56198809  0.01299038  1
  C  C343  1  0.04061053  0.59143448  0.24209739  1
  C  C344  1  0.02555685  0.50624806  0.20935448  1
  C  C345  1  0.07607198  0.62452916  0.00685774  1
  C  C346  1  0.03195969  0.64092234  0.00703898  1
  O  O347  1  0.25178917  0.64597476  0.16385475  1
  H  H348  1  0.25791627  0.51777570  0.07565165  1
  O  O349  1  0.37873924  0.50782963  0.11245124  1
  C  C350  1  0.26189442  0.54986290  0.20392701  1
  C  C351  1  0.34058630  0.51495150  0.08688358  1
  O  O352  1  0.47842583  0.54220782  0.15243641  1
  Cu  Cu353  1  0.42291892  0.55081535  0.11446436  1
  O  O354  1  0.32726199  0.55607691  0.08624647  1
  O  O355  1  0.47551645  0.60274383  0.21898523  1
  H  H356  1  0.29056100  0.57356797  0.20684081  1
  O  O357  1  0.42132483  0.58479638  0.04330905  1
  C  C358  1  0.49776039  0.57454288  0.18356174  1
  C  C359  1  0.26580990  0.50119152  0.22322529  1
  O  O360  1  0.43931040  0.66414644  0.02651625  1
  H  H361  1  0.46584891  0.52964476  0.01486605  1
  C  C362  1  0.44694593  0.62225134  0.02629994  1
  H  H363  1  0.18137791  0.75170426  0.19960072  1
  C  C364  1  0.12653377  0.75865223  0.13847914  1
  Cu  Cu365  1  0.10808254  0.97249499  0.05767824  1
  O  O366  1  0.19584448  0.79354403  0.04383123  1
  C  C367  1  0.15683524  0.77558031  0.18177877  1
  H  H368  1  0.07502156  0.77436065  0.07198451  1
  C  C369  1  0.09753916  0.78888833  0.10616633  1
  O  O370  1  0.08143110  0.92357125  0.10874999  1
  C  C371  1  0.07501269  0.87934398  0.09225773  1
  C  C372  1  0.10009167  0.83935697  0.11886768  1
  H  H373  1  0.12704129  0.89463382  0.17866936  1
  C  C374  1  0.12655539  0.85488347  0.16697888  1
  C  C375  1  0.15809153  0.82492622  0.19442272  1
  C  C376  1  0.19018665  0.97122699  0.03150356  1
  C  C377  1  0.18594032  0.88187509  0.04965613  1
  C  C378  1  0.21083434  0.88802140  0.10077060  1
  C  C379  1  0.22878819  0.93365071  0.11383758  1
  O  O380  1  0.04794486  0.86803766  0.05250740  1
  C  C381  1  0.21340077  0.97661037  0.08393634  1
  H  H382  1  0.21657659  0.85654765  0.12567220  1
  C  C383  1  0.19011238  0.84199855  0.23840302  1
  H  H384  1  0.06375968  0.99273113  0.19616329  1
  C  C385  1  0.17801019  0.92316063  0.01482072  1
  C  C386  1  0.17487609  0.83273936  0.02380518  1
  Cu  Cu387  1  0.25524386  0.78600096  0.02796580  1
  H  H388  1  0.38155231  0.79013175  0.19276579  1
  C  C389  1  0.34260022  0.82287204  0.11936878  1
  C  C390  1  0.37452901  0.88527422  0.06069722  1
  C  C391  1  0.41446556  0.84791252  0.14213878  1
  C  C392  1  0.37962067  0.81648780  0.15148967  1
  C  C393  1  0.45610086  0.84576478  0.17535516  1
  H  H394  1  0.48535677  0.99344027  0.20245933  1
  C  C395  1  0.42273135  0.99825710  0.15359261  1
  H  H396  1  0.41157227  0.94605799  0.22235165  1
  H  H397  1  0.35027675  0.90418477  0.24506091  1
  C  C398  1  0.33888034  0.98126746  0.12038053  1
  H  H399  1  0.44043465  0.90443479  0.08129957  1
  H  H400  1  0.27267104  0.88034504  0.21203817  1
  C  C401  1  0.33215154  0.92106955  0.20703482  1
  C  C402  1  0.27182440  0.93794917  0.14416935  1
  O  O403  1  0.30955804  0.75886376  0.17360634  1
  C  C404  1  0.29687484  0.96918975  0.10740145  1
  C  C405  1  0.41218543  0.88114274  0.09268447  1
  O  O406  1  0.26809928  0.79848592  0.11171572  1
  C  C407  1  0.48639310  0.88468650  0.16923022  1
  H  H408  1  0.48077303  0.91527318  0.13687431  1
  H  H409  1  0.30711064  0.86702166  0.05680929  1
  H  H410  1  0.44384844  0.77028955  0.21790348  1
  C  C411  1  0.33747142  0.85917462  0.07709922  1
  C  C412  1  0.35544806  0.95625871  0.17465309  1
  C  C413  1  0.29124330  0.90801744  0.19025211  1
  H  H414  1  0.28426990  0.98852777  0.06685455  1
  N  N415  1  0.39883206  0.96525616  0.18421893  1
  C  C416  1  0.30309796  0.79243082  0.14142281  1
  C  C417  1  0.46553796  0.80293083  0.21130779  1
  C  C418  1  0.37710436  0.92725558  0.01511329  1
  H  H419  1  0.08822022  0.65718680  0.35195078  1
  H  H420  1  0.04235072  0.62419875  0.38666733  1
  C  C421  1  0.08318595  0.69592736  0.34027910  1
  O  O422  1  0.16264751  0.66601426  0.35356223  1
  H  H423  1  0.17314386  0.70949158  0.46812286  1
  C  C424  1  0.16031145  0.70375273  0.32707881  1
  C  C425  1  0.04178427  0.71804652  0.34508841  1
  C  C426  1  0.11545763  0.72579785  0.32097287  1
  H  H427  1  0.10612951  0.54840575  0.29836493  1
  O  O428  1  0.07587643  0.53876265  0.41648783  1
  O  O429  1  0.19278115  0.72603702  0.30244621  1
  N  N430  1  0.08805698  0.52546799  0.27354513  1
  C  C431  1  0.01118737  0.64062967  0.39100521  1
  C  C432  1  0.19575836  0.68137734  0.48510080  1
  C  C433  1  0.00549370  0.69034414  0.37394024  1
  H  H434  1  0.04223644  0.60730219  0.47897697  1
  H  H435  1  0.11799511  0.58104370  0.47731697  1
  C  C436  1  0.23851446  0.68463017  0.47353771  1
  C  C437  1  0.24849527  0.72695999  0.43460320  1
  H  H438  1  0.06003663  0.61957095  0.26143271  1
  H  H439  1  0.01757413  0.50402032  0.39225272  1
  C  C440  1  0.09393785  0.50142482  0.42984702  1
  C  C441  1  0.49586297  0.71081882  0.36147477  1
  H  H442  1  0.30950060  0.54563483  0.30755218  1
  O  O443  1  0.45715819  0.63617790  0.32921510  1
  H  H444  1  0.30659187  0.65467346  0.47645193  1
  C  C445  1  0.38911114  0.53337562  0.35623733  1
  O  O446  1  0.42810011  0.53930982  0.35152120  1
  O  O447  1  0.36559082  0.55705815  0.39232643  1
  Cu  Cu448  1  0.45137349  0.57531417  0.28644880  1
  Cu  Cu449  1  0.35745543  0.52938174  0.47164356  1
  O  O450  1  0.28727995  0.73623591  0.42198090  1
  H  H451  1  0.42597135  0.72465900  0.34824974  1
  C  C452  1  0.27212517  0.65137115  0.48822282  1
  C  C453  1  0.36816142  0.50152359  0.31073027  1
  C  C454  1  0.32702731  0.51246537  0.29209754  1
  C  C455  1  0.49252151  0.65531201  0.35052353  1
  C  C456  1  0.45950328  0.73929847  0.35095817  1
  C  C457  1  0.03511027  0.76586571  0.32512142  1
  H  H458  1  0.00612336  0.78412835  0.33445069  1
  O  O459  1  0.21942026  0.75136096  0.40813647  1
  C  C460  1  0.11033324  0.77364628  0.30080484  1
  O  O461  1  0.02010949  0.86179998  0.29217438  1
  C  C462  1  0.06065072  0.84622885  0.28817854  1
  H  H463  1  0.13709047  0.79752636  0.28603186  1
  C  C464  1  0.06885369  0.79264237  0.30197089  1
  H  H465  1  0.22116557  0.91747932  0.33367589  1
  Cu  Cu466  1  0.22147929  0.78206317  0.33609053  1
  C  C467  1  0.23371225  0.93628214  0.37569017  1
  O  O468  1  0.08640982  0.87621840  0.27489688  1
  Cu  Cu469  1  0.00592946  0.91963961  0.32728788  1
  O  O470  1  0.00737843  0.96227945  0.26525631  1
  C  C471  1  0.22863197  0.98617324  0.38562394  1
  O  O472  1  0.21788504  0.81044752  0.26075386  1
  O  O473  1  0.19184741  0.88314614  0.25857760  1
  C  C474  1  0.47626924  0.89306976  0.49009953  1
  O  O475  1  0.35723807  0.82724487  0.49434080  1
  C  C476  1  0.47510978  0.94690137  0.47754316  1
  C  C477  1  0.46552713  0.79104194  0.35735726  1
  C  C478  1  0.36235767  0.86890471  0.36628747  1
  O  O479  1  0.27705172  0.83625788  0.46103069  1
  O  O480  1  0.25321894  0.83766639  0.36635678  1
  C  C481  1  0.44330523  0.96921925  0.31975579  1
  C  C482  1  0.26233705  0.85891132  0.41566362  1
  C  C483  1  0.25610036  0.91259528  0.42212060  1
  H  H484  1  0.41075641  0.95247868  0.43255866  1
  H  H485  1  0.32774388  0.86462466  0.37083099  1
  H  H486  1  0.37234472  0.79087681  0.35854277  1
  C  C487  1  0.43368347  0.83354561  0.35290438  1
  C  C488  1  0.43763810  0.97180558  0.45383953  1
  N  N489  1  0.35363209  0.95682893  0.36354192  1
  C  C490  1  0.42344194  0.92091396  0.33715871  1
  Cu  Cu491  1  0.31688050  0.78516223  0.46046746  1
  O  O492  1  0.47902212  0.97667341  0.30275918  1
  C  C493  1  0.38804755  0.82744214  0.35785355  1
  C  C494  1  0.37942072  0.91631983  0.36118774  1
  C  C495  1  0.26645894  0.98369230  0.47994308  1
  H  H496  1  0.32071008  0.95609127  0.37346725  1
  C  C497  1  0.27222350  0.93289718  0.47536879  1
  C  C498  1  0.45001392  0.88047267  0.33653147  1
  H  H499  1  0.48456192  0.88207732  0.32197956  1
  H  H500  1  0.40476414  0.89254145  0.49770221  1
  C  C501  1  0.43635635  0.87202590  0.49548185  1
  C  C502  1  0.05884547  0.62180977  0.70312884  1
  O  O503  1  0.08850003  0.64652983  0.68976494  1
  H  H504  1  0.12359506  0.56967797  0.69767105  1
  C  C505  1  0.05738891  0.56997679  0.72222750  1
  C  C506  1  0.09796196  0.54764830  0.71734210  1
  C  C507  1  0.08503177  0.70101888  0.57125420  1
  H  H508  1  0.03658914  0.71553955  0.68226642  1
  H  H509  1  0.15273929  0.70606290  0.59625925  1
  C  C510  1  0.12761872  0.68708982  0.57336624  1
  H  H511  1  0.20700403  0.57872082  0.57535029  1
  C  C512  1  0.21599742  0.60928035  0.54718953  1
  C  C513  1  0.13736117  0.64507579  0.53735749  1
  C  C514  1  0.05423438  0.67281894  0.53593251  1
  C  C515  1  0.01401650  0.64362213  0.70500178  1
  C  C516  1  0.02086823  0.54029715  0.73989678  1
  H  H517  1  0.18453011  0.54026384  0.73187898  1
  C  C518  1  0.18082975  0.50100843  0.71730745  1
  N  N519  1  0.01562033  0.69136590  0.51883312  1
  C  C520  1  0.18557873  0.64458018  0.52837621  1
  C  C521  1  0.06558439  0.62714781  0.50716272  1
  C  C522  1  0.07404311  0.74918814  0.60311320  1
  C  C523  1  0.01009440  0.69341089  0.69557412  1
  C  C524  1  0.00675910  0.73903425  0.53410521  1
  C  C525  1  0.10815910  0.61288217  0.50617571  1
  O  O526  1  0.25312040  0.55133486  0.71826029  1
  C  C527  1  0.25686413  0.50598276  0.70390987  1
  C  C528  1  0.25702175  0.61358892  0.52570179  1
  C  C529  1  0.37912758  0.71487734  0.67996220  1
  C  C530  1  0.45367535  0.70664364  0.69668541  1
  C  C531  1  0.33497330  0.69322144  0.66561992  1
  H  H532  1  0.41244555  0.64330571  0.68238202  1
  C  C533  1  0.41352164  0.68409551  0.68876859  1
  O  O534  1  0.30579460  0.71815741  0.64975142  1
  O  O535  1  0.33340791  0.64627612  0.66837526  1
  O  O536  1  0.28270068  0.53899852  0.57464958  1
  C  C537  1  0.28869017  0.57724617  0.54255453  1
  O  O538  1  0.41474549  0.55011727  0.65328200  1
  Cu  Cu539  1  0.29048697  0.60448545  0.70384139  1
  O  O540  1  0.32283795  0.58248975  0.51173940  1
  O  O541  1  0.49259961  0.63359029  0.69762226  1
  C  C542  1  0.49377153  0.67729425  0.70054316  1
  H  H543  1  0.49162244  0.53480018  0.65183427  1
  Cu  Cu544  1  0.32434772  0.50784930  0.62582692  1
  C  C545  1  0.41188086  0.50775448  0.66379007  1
  C  C546  1  0.03409208  0.76713871  0.57535649  1
  O  O547  1  0.09683196  0.76792628  0.63981578  1
  C  C548  1  0.02028238  0.96223557  0.63164836  1
  C  C549  1  0.02263605  0.81518186  0.59497663  1
  C  C550  1  0.02158544  0.91430788  0.61229638  1
  H  H551  1  0.05146688  0.89374686  0.61744630  1
  Cu  Cu552  1  0.13782973  0.96634919  0.72458897  1
  O  O553  1  0.08950473  0.95400083  0.68092668  1
  O  O554  1  0.16086759  0.89872238  0.72223912  1
  H  H555  1  0.04058443  0.83163846  0.63247921  1
  C  C556  1  0.05745021  0.98230645  0.66876844  1
  H  H557  1  0.23816637  0.89903998  0.70392486  1
  C  C558  1  0.24537000  0.87608808  0.74255775  1
  O  O559  1  0.24006755  0.98319515  0.71200658  1
  C  C560  1  0.00006157  0.79427967  0.73067490  1
  H  H561  1  0.23562588  0.99286966  0.59837423  1
  H  H562  1  0.03034259  0.77681898  0.74450466  1
  C  C563  1  0.49299381  0.89595551  0.71266927  1
  C  C564  1  0.43355553  0.83942596  0.68841156  1
  C  C565  1  0.42196001  0.78564171  0.68976206  1
  C  C566  1  0.45887015  0.75677385  0.69887555  1
  H  H567  1  0.49143414  0.77319791  0.70135066  1
  C  C568  1  0.38179656  0.76580895  0.67907774  1
  C  C569  1  0.44480742  0.91111402  0.62241824  1
  C  C570  1  0.37388810  0.95807666  0.73398194  1
  C  C571  1  0.30985095  0.91193137  0.66568543  1
  C  C572  1  0.31793346  0.89912757  0.72770035  1
  H  H573  1  0.49932670  0.98312375  0.60382131  1
  C  C574  1  0.48268832  0.92306869  0.65653151  1
  O  O575  1  0.38488410  0.76323427  0.54313083  1
  H  H576  1  0.46373135  0.76188050  0.55446194  1
  H  H577  1  0.28290590  0.89262340  0.63945022  1
  C  C578  1  0.33095179  0.95266477  0.64235170  1
  C  C579  1  0.42157419  0.86978973  0.63692835  1
  C  C580  1  0.43252185  0.82265930  0.51171110  1
  H  H581  1  0.35420987  0.78943753  0.67003750  1
  C  C582  1  0.38873939  0.80288947  0.51918088  1
  C  C583  1  0.46668506  0.85763886  0.73052661  1
  H  H584  1  0.32332574  0.96675596  0.59588251  1
  C  C585  1  0.36508989  0.97519817  0.67252981  1
  C  C586  1  0.46750238  0.79722918  0.53202686  1
  H  H587  1  0.39663698  0.85549342  0.60521077  1
  H  H588  1  0.43049499  0.93427124  0.58483821  1
  H  H589  1  0.28437570  0.90869210  0.51315064  1
  C  C590  1  0.08171379  0.55099937  0.86710487  1
  H  H591  1  0.06215259  0.64250726  0.83196601  1
  H  H592  1  0.11029184  0.56686837  0.84465939  1
  C  C593  1  0.04267102  0.57922703  0.87346633  1
  N  N594  1  0.04034457  0.62773765  0.85881339  1
  H  H595  1  0.07894305  0.68570547  0.91658933  1
  C  C596  1  0.05470019  0.70919197  0.94043506  1
  H  H597  1  0.02285031  0.71902450  0.82377439  1
  C  C598  1  0.02656844  0.69276888  0.98618178  1
  H  H599  1  0.10198714  0.64810719  0.99065446  1
  C  C600  1  0.08273461  0.50183539  0.88592234  1
  O  O601  1  0.15758170  0.58926604  0.99835285  1
  O  O602  1  0.10235908  0.74958365  0.84265761  1
  C  C603  1  0.00864974  0.50730651  0.91913131  1
  C  C604  1  0.00095918  0.64892989  0.85832844  1
  C  C605  1  0.00472673  0.55515519  0.89930798  1
  H  H606  1  0.49287962  0.61089854  0.85117413  1
  H  H607  1  0.39098938  0.51366481  0.91299470  1
  C  C608  1  0.47795700  0.51584805  0.81044087  1
  C  C609  1  0.45906893  0.62003432  0.84886821  1
  H  H610  1  0.39014274  0.71821183  0.83470841  1
  C  C611  1  0.38363804  0.59203071  0.82493783  1
  C  C612  1  0.44377440  0.66775433  0.84978076  1
  C  C613  1  0.40135022  0.68070060  0.84080655  1
  C  C614  1  0.42789855  0.58186622  0.84030544  1
  C  C615  1  0.37392791  0.64196567  0.82697347  1
  H  H616  1  0.36025349  0.56403287  0.81723647  1
  O  O617  1  0.31959147  0.69829036  0.80532576  1
  C  C618  1  0.32951816  0.65584643  0.80355736  1
  C  C619  1  0.47659854  0.70899263  0.85105926  1
  C  C620  1  0.44164482  0.52902465  0.84772361  1
  O  O621  1  0.30364837  0.62068094  0.78698500  1
  H  H622  1  0.49271221  0.54242743  0.77921764  1
  C  C623  1  0.48785585  0.60263192  0.99969919  1
  C  C624  1  0.49372750  0.55165463  0.99948706  1
  H  H625  1  0.02227547  0.83291949  0.93851054  1
  C  C626  1  0.05199586  0.75825801  0.92657938  1
  C  C627  1  0.07884623  0.77453848  0.87137240  1
  O  O628  1  0.07159468  0.82050570  0.86124113  1
  H  H629  1  0.19687747  0.81847678  0.86586006  1
  C  C630  1  0.02546080  0.79238092  0.95315272  1
  C  C631  1  0.22397979  0.83148857  0.83589428  1
  H  H632  1  0.15840536  0.91964704  0.97402290  1
  O  O633  1  0.14325376  0.85385351  0.79924172  1
  Cu  Cu634  1  0.08362588  0.85409560  0.78239250  1
  O  O635  1  0.14859810  0.83185681  0.98545697  1
  O  O636  1  0.18301877  0.99136374  0.77124789  1
  O  O637  1  0.02817033  0.87218095  0.75773579  1
  C  C638  1  0.17157824  0.87231345  0.76443829  1
  C  C639  1  0.21526236  0.85768315  0.78345028  1
  C  C640  1  0.26664306  0.82245158  0.85002867  1
  O  O641  1  0.25128414  0.78076310  0.94272252  1
  O  O642  1  0.41078945  0.93945689  0.99578731  1
  O  O643  1  0.46861263  0.75120556  0.84859960  1
  O  O644  1  0.34006349  0.94246145  0.98897884  1
  O  O645  1  0.31779597  0.78996966  0.91824082  1
  O  O646  1  0.42428602  0.95870975  0.81763816  1
  H  H647  1  0.33455493  0.83804193  0.82341980  1
  C  C648  1  0.28111302  0.79558577  0.90537966  1
  C  C649  1  0.30046733  0.84181448  0.81514724  1
  H  H650  1  0.47188125  0.83666773  0.77057253  1
  H  H651  1  0.36031268  0.90787480  0.80595775  1
  C  C652  1  0.41354820  0.97524332  0.76937964  1
  C  C653  1  0.28713257  0.86805275  0.76415414  1
  C  C654  1  0.35249609  0.91990976  0.76032395  1
  C  C655  1  0.53872284  0.17957932  0.06261624  1
  O  O656  1  0.69110460  0.04524535  0.05938956  1
  C  C657  1  0.56433041  0.21457764  0.09558137  1
  O  O658  1  0.55951580  0.21935737  0.15198749  1
  C  C659  1  0.72587705  0.05075970  0.08806755  1
  C  C660  1  0.51455469  0.14380677  0.09071863  1
  H  H661  1  0.52524933  0.04631955  0.14505011  1
  H  H662  1  0.51449520  0.14191407  0.14066886  1
  C  C663  1  0.73668891  0.02413392  0.14402675  1
  C  C664  1  0.72648208  0.24098674  0.10445616  1
  O  O665  1  0.70052188  0.24501227  0.05992527  1
  Cu  Cu666  1  0.64495705  0.24065734  0.06110470  1
  O  O667  1  0.58570954  0.24531780  0.06601047  1
  O  O668  1  0.73042998  0.20337782  0.12948009  1
  H  H669  1  0.99470902  0.03253250  0.07980915  1
  O  O670  1  0.75567162  0.07621845  0.06418934  1
  C  C671  1  0.94481656  0.20323741  0.08989780  1
  O  O672  1  0.94042103  0.04286650  0.13764276  1
  O  O673  1  0.89177120  0.10015280  0.11267658  1
  Cu  Cu674  1  0.89975564  0.14714224  0.17343810  1
  C  C675  1  0.92327584  0.07358879  0.09996968  1
  O  O676  1  0.95003403  0.17381655  0.13326604  1
  C  C677  1  0.94572599  0.08032942  0.04315686  1
  C  C678  1  0.98408796  0.05361113  0.04146472  1
  H  H679  1  0.80353710  0.04721003  0.14598298  1
  C  C680  1  0.97783435  0.21120752  0.04592436  1
  C  C681  1  0.77742795  0.02549373  0.16869236  1
  O  O682  1  0.91256582  0.23158227  0.08611298  1
  Cu  Cu683  1  0.90861349  0.00205951  0.19612808  1
  O  O684  1  0.85502262  0.02067519  0.22463263  1
  O  O685  1  0.89745130  0.18998750  0.23884350  1
  H  H686  1  0.84485410  0.24980917  0.21657240  1
  C  C687  1  0.91964591  0.22819549  0.24597938  1
  O  O688  1  0.63426841  0.49821934  0.09037555  1
  Cu  Cu689  1  0.54530921  0.27640040  0.19066590  1
  C  C690  1  0.73385116  0.33302625  0.09958656  1
  C  C691  1  0.72465561  0.42240345  0.11725213  1
  H  H692  1  0.70821109  0.33352454  0.06634943  1
  Cu  Cu693  1  0.63866576  0.42999939  0.10269338  1
  O  O694  1  0.63557976  0.36471455  0.12942546  1
  C  C695  1  0.61307872  0.34847851  0.17310940  1
  H  H696  1  0.70059611  0.35491491  0.19957601  1
  O  O697  1  0.57443852  0.33731722  0.16824790  1
  O  O698  1  0.69483766  0.42106788  0.07788362  1
  O  O699  1  0.73163164  0.45928551  0.14915709  1
  C  C700  1  0.63473462  0.34133099  0.23099930  1
  C  C701  1  0.74794098  0.37621320  0.12749965  1
  C  C702  1  0.74952492  0.28883168  0.12426602  1
  C  C703  1  0.67912271  0.34377715  0.23508027  1
  H  H704  1  0.78985369  0.25609494  0.19029167  1
  C  C705  1  0.80357337  0.33369143  0.18486418  1
  C  C706  1  0.86138515  0.28469344  0.22927448  1
  O  O707  1  0.94793389  0.39601845  0.05026810  1
  O  O708  1  0.96689143  0.32479365  0.07736218  1
  C  C709  1  0.90453189  0.28034629  0.24717164  1
  C  C710  1  0.84518457  0.33246058  0.22026491  1
  O  O711  1  0.88221404  0.30756744  0.01006427  1
  O  O712  1  0.82818344  0.47518176  0.17794966  1
  H  H713  1  0.79624706  0.41646099  0.17583358  1
  C  C714  1  0.84335391  0.32360740  0.00028471  1
  H  H715  1  0.97055037  0.49391982  0.15281044  1
  O  O716  1  0.83173957  0.36378315  0.01247955  1
  C  C717  1  0.78136644  0.29072900  0.16883583  1
  C  C718  1  0.97370282  0.36371395  0.04510804  1
  Cu  Cu719  1  0.91205808  0.29755318  0.08223128  1
  C  C720  1  0.78486393  0.37760204  0.16523718  1
  O  O721  1  0.52181176  0.22707095  0.32369364  1
  O  O722  1  0.65221499  0.12849432  0.46112101  1
  H  H723  1  0.69779634  0.04488383  0.48358813  1
  C  C724  1  0.50558257  0.02600120  0.49781775  1
  C  C725  1  0.99125576  0.00527032  0.25525898  1
  H  H726  1  0.98505767  0.10168884  0.27926336  1
  C  C727  1  0.95040390  0.13138454  0.40329033  1
  C  C728  1  0.93994028  0.08172567  0.41348318  1
  H  H729  1  0.90732391  0.07342731  0.43203167  1
  H  H730  1  0.86167735  0.13735129  0.37085426  1
  C  C731  1  0.87504875  0.17050735  0.39198201  1
  C  C732  1  0.91769866  0.17131454  0.41657691  1
  O  O733  1  0.79300547  0.18416204  0.32773606  1
  C  C734  1  0.81113625  0.21733384  0.35219382  1
  C  C735  1  0.85110708  0.21299002  0.38853647  1
  C  C736  1  0.93156643  0.21329752  0.45167903  1
  C  C737  1  0.97168839  0.04821706  0.40326360  1
  H  H738  1  0.96225902  0.21370576  0.47579058  1
  H  H739  1  0.99980574  0.18608972  0.37295413  1
  O  O740  1  0.95277754  0.01583725  0.25611499  1
  C  C741  1  0.99056962  0.14766208  0.38457079  1
  C  C742  1  0.96565529  0.23317139  0.25102808  1
  C  C743  1  0.98557630  0.18763178  0.25057853  1
  H  H744  1  0.96460980  0.15505342  0.25562234  1
  H  H745  1  0.73908892  0.25427666  0.28832580  1
  Cu  Cu746  1  0.51714987  0.26155822  0.39589066  1
  O  O747  1  0.56098254  0.30657843  0.37697707  1
  H  H748  1  0.68725903  0.32922290  0.39056887  1
  C  C749  1  0.60085838  0.30834714  0.38854022  1
  C  C750  1  0.67167893  0.32995938  0.34505612  1
  C  C751  1  0.62830662  0.32214431  0.33545745  1
  O  O752  1  0.61521129  0.31167556  0.44157603  1
  O  O753  1  0.62652032  0.42580492  0.46508271  1
  C  C754  1  0.60971409  0.46761343  0.47886805  1
  H  H755  1  0.68651112  0.46735312  0.43233409  1
  C  C756  1  0.69664516  0.33637983  0.29278253  1
  C  C757  1  0.60804450  0.32768287  0.27922827  1
  Cu  Cu758  1  0.53520797  0.42356970  0.47604423  1
  H  H759  1  0.57389806  0.32373916  0.27454557  1
  C  C760  1  0.74407782  0.33119663  0.31276027  1
  Cu  Cu761  1  0.59838880  0.36748240  0.49026100  1
  O  O762  1  0.57163551  0.47104929  0.49869196  1
  O  O763  1  0.50335978  0.27667240  0.25015565  1
  O  O764  1  0.50624610  0.29710253  0.46716806  1
  H  H765  1  0.75540693  0.41322736  0.33496217  1
  C  C766  1  0.88150634  0.47253951  0.37426169  1
  H  H767  1  0.91423972  0.41799802  0.42907806  1
  C  C768  1  0.95659736  0.44881970  0.35907736  1
  O  O769  1  0.83337447  0.44400225  0.45009116  1
  C  C770  1  0.90610582  0.25628101  0.45052476  1
  C  C771  1  0.86819857  0.25729328  0.41758812  1
  C  C772  1  0.75835862  0.28261358  0.30994187  1
  H  H773  1  0.98867179  0.34646761  0.38117308  1
  C  C774  1  0.80332350  0.36092521  0.36778800  1
  C  C775  1  0.96651493  0.48551708  0.31529918  1
  O  O776  1  0.90831244  0.36061245  0.47975807  1
  C  C777  1  0.81348320  0.30965197  0.37560301  1
  H  H778  1  0.82455609  0.38929103  0.39245355  1
  H  H779  1  0.99823558  0.49073620  0.29348181  1
  C  C780  1  0.76544732  0.37337079  0.33887576  1
  H  H781  1  0.76470314  0.48670591  0.45694996  1
  H  H782  1  0.86456456  0.33411015  0.43973241  1
  C  C783  1  0.91609776  0.44238130  0.38830629  1
  C  C784  1  0.79379256  0.27030719  0.34758080  1
  H  H785  1  0.92047315  0.29339864  0.46905813  1
  C  C786  1  0.99804695  0.42488944  0.38261687  1
  C  C787  1  0.84114804  0.47139752  0.40721399  1
  N  N788  1  0.84928343  0.30429517  0.41513253  1
  C  C789  1  0.99295574  0.27759174  0.25156203  1
  N  N790  1  0.97390386  0.32087334  0.25947170  1
  C  C791  1  0.90805909  0.36966621  0.26674405  1
  H  H792  1  0.92664132  0.40268969  0.27901414  1
  C  C793  1  0.92953372  0.32330370  0.25888875  1
  H  H794  1  0.99721868  0.34818167  0.25889771  1
  H  H795  1  0.84857569  0.40854384  0.25317446  1
  C  C796  1  0.86489932  0.37321450  0.25057180  1
  H  H797  1  0.58832154  0.13213713  0.58090227  1
  C  C798  1  0.71667271  0.11764300  0.52208443  1
  O  O799  1  0.66496285  0.18438544  0.52624796  1
  C  C800  1  0.72149707  0.06759689  0.50834877  1
  C  C801  1  0.54050760  0.18290601  0.60334806  1
  C  C802  1  0.55535713  0.14076903  0.57537339  1
  C  C803  1  0.54020741  0.05852418  0.52111611  1
  Cu  Cu804  1  0.66109492  0.19169354  0.61386286  1
  O  O805  1  0.64420516  0.12566788  0.63914488  1
  O  O806  1  0.57710063  0.04641286  0.52015679  1
  H  H807  1  0.56997441  0.02258233  0.60085414  1
  H  H808  1  0.56901442  0.10197937  0.66289690  1
  C  C809  1  0.58983415  0.20512402  0.69005308  1
  C  C810  1  0.52690175  0.10645002  0.54767592  1
  H  H811  1  0.58415217  0.16750205  0.71124937  1
  H  H812  1  0.64052718  0.03116142  0.64539426  1
  C  C813  1  0.65139415  0.11444986  0.69383424  1
  C  C814  1  0.56855518  0.21994409  0.63692166  1
  C  C815  1  0.57717422  0.08997381  0.70929804  1
  C  C816  1  0.67480530  0.14247393  0.50291518  1
  H  H817  1  0.51082071  0.10827161  0.65047722  1
  C  C818  1  0.61694221  0.00667393  0.66773261  1
  H  H819  1  0.52749973  0.23679557  0.72474113  1
  C  C820  1  0.61827135  0.23862584  0.71124809  1
  O  O821  1  0.74667220  0.22494250  0.64932435  1
  H  H822  1  0.74671729  0.18829774  0.54948524  1
  C  C823  1  0.74834271  0.14708959  0.54720659  1
  O  O824  1  0.68764834  0.12440167  0.71760661  1
  C  C825  1  0.50316246  0.05843091  0.72749698  1
  C  C826  1  0.61743485  0.09815375  0.73449020  1
  Cu  Cu827  1  0.72077118  0.18126224  0.70742186  1
  C  C828  1  0.54785946  0.07218875  0.74990207  1
  C  C829  1  0.75863446  0.04448843  0.53086080  1
  H  H830  1  0.98003450  0.02778863  0.64407421  1
  C  C831  1  0.91367893  0.00216960  0.57819153  1
  C  C832  1  0.82409785  0.12938897  0.66928295  1
  C  C833  1  0.81939213  0.14614919  0.61002570  1
  C  C834  1  0.87218473  0.21093034  0.63004050  1
  C  C835  1  0.84408939  0.18817985  0.59072146  1
  C  C836  1  0.78584167  0.12238039  0.56805925  1
  C  C837  1  0.79094569  0.07202408  0.55592873  1
  H  H838  1  0.81937419  0.05506257  0.57581634  1
  C  C839  1  0.87667431  0.19351011  0.69177546  1
  H  H840  1  0.80573212  0.09727299  0.67744804  1
  H  H841  1  0.84237717  0.20385889  0.54434265  1
  O  O842  1  0.91351882  0.04461827  0.58856485  1
  C  C843  1  0.85215780  0.15177581  0.71216977  1
  H  H844  1  0.92884453  0.23825951  0.71200263  1
  H  H845  1  0.89230907  0.23865122  0.61216907  1
  N  N846  1  0.90918847  0.21156664  0.72872471  1
  C  C847  1  0.50053584  0.26262276  0.72851741  1
  O  O848  1  0.68613637  0.25516309  0.60889211  1
  C  C849  1  0.72560838  0.25829281  0.62485514  1
  O  O850  1  0.60385009  0.47082107  0.67789215  1
  C  C851  1  0.52348224  0.41997403  0.69197029  1
  H  H852  1  0.55353667  0.27971535  0.57572787  1
  C  C853  1  0.57412662  0.26624844  0.60921730  1
  C  C854  1  0.52813037  0.47003205  0.67656288  1
  C  C855  1  0.62563212  0.28575850  0.69124235  1
  C  C856  1  0.60193629  0.29845313  0.63995779  1
  C  C857  1  0.60597740  0.34809275  0.61725437  1
  Cu  Cu858  1  0.64530917  0.44862466  0.62675804  1
  O  O859  1  0.62981658  0.38086207  0.64282949  1
  O  O860  1  0.68174071  0.43305942  0.56706818  1
  H  H861  1  0.65017211  0.30906542  0.71152952  1
  H  H862  1  0.69011524  0.34871520  0.58290372  1
  C  C863  1  0.72296503  0.43962968  0.57653572  1
  C  C864  1  0.72392319  0.34859959  0.59709528  1
  O  O865  1  0.58199731  0.36056558  0.57465004  1
  C  C866  1  0.56908301  0.49588531  0.66538066  1
  H  H867  1  0.54181883  0.31857077  0.69876492  1
  H  H868  1  0.55379313  0.39978302  0.70220581  1
  C  C869  1  0.74467552  0.30687814  0.61857175  1
  O  O870  1  0.74350115  0.47523760  0.57006468  1
  C  C871  1  0.74586486  0.39288574  0.59648619  1
  C  C872  1  0.50820667  0.31050231  0.71150945  1
  C  C873  1  0.85552652  0.35439107  0.66286114  1
  C  C874  1  0.86082220  0.34670260  0.72741158  1
  H  H875  1  0.99257108  0.33802833  0.50794050  1
  C  C876  1  0.78734554  0.39563868  0.61726468  1
  C  C877  1  0.89126217  0.36918162  0.62580398  1
  C  C878  1  0.97727380  0.37215041  0.52460936  1
  C  C879  1  0.92098618  0.43553978  0.52562536  1
  N  N880  1  0.97887466  0.36154800  0.73748475  1
  H  H881  1  0.88797109  0.37985482  0.57798796  1
  C  C882  1  0.93701041  0.35910307  0.71280321  1
  C  C883  1  0.78663949  0.30954852  0.64185119  1
  H  H884  1  0.80254571  0.27745388  0.66157558  1
  H  H885  1  0.95824975  0.38873943  0.62469354  1
  C  C886  1  0.94619668  0.46593521  0.56142030  1
  C  C887  1  0.98738051  0.45010955  0.57695949  1
  C  C888  1  0.93197981  0.37382303  0.65156365  1
  C  C889  1  0.80856529  0.35340965  0.63909016  1
  H  H890  1  0.80365281  0.43310929  0.61658052  1
  C  C891  1  0.93472429  0.38725139  0.50684655  1
  H  H892  1  0.89014980  0.44702751  0.51252424  1
  C  C893  1  0.59358977  0.07803235  0.83415269  1
  C  C894  1  0.62652357  0.09284864  0.79588919  1
  H  H895  1  0.65788348  0.09836676  0.81271763  1
  C  C896  1  0.55291060  0.06956326  0.81265057  1
  O  O897  1  0.64112204  0.09057726  0.92193238  1
  C  C898  1  0.60369220  0.07752858  0.90134196  1
  H  H899  1  0.52679958  0.06039019  0.84606317  1
  O  O900  1  0.57705382  0.05968384  0.93420824  1
  H  H901  1  0.66830156  0.21496753  0.90006207  1
  O  O902  1  0.62832746  0.19715644  0.80725395  1
  O  O903  1  0.53297701  0.20285750  0.87841843  1
  H  H904  1  0.72756070  0.18907955  0.93331871  1
  H  H905  1  0.54760908  0.21761258  0.97820639  1
  C  C906  1  0.71827802  0.01419871  0.90247291  1
  C  C907  1  0.51133368  0.15456165  0.96104982  1
  C  C908  1  0.51324695  0.16458657  0.89110600  1
  C  C909  1  0.64498164  0.21727004  0.76465424  1
  O  O910  1  0.68465338  0.01683278  0.93403099  1
  H  H911  1  0.59479343  0.24435351  0.90218591  1
  O  O912  1  0.68780654  0.22241617  0.76133901  1
  Cu  Cu913  1  0.66720141  0.06884234  0.98553228  1
  C  C914  1  0.53343732  0.18479492  0.99887197  1
  C  C915  1  0.71454210  0.00895896  0.83601868  1
  C  C916  1  0.67378400  0.00372413  0.81230605  1
  H  H917  1  0.64545367  0.00766737  0.84139463  1
  C  C918  1  0.75370764  0.21763388  0.93858576  1
  O  O919  1  0.75472901  0.01532761  0.92780541  1
  C  C920  1  0.90673603  0.12477507  0.85931675  1
  H  H921  1  0.89240363  0.09383202  0.87785550  1
  C  C922  1  0.94269345  0.14528567  0.88910200  1
  C  C923  1  0.89248431  0.14893228  0.80780826  1
  C  C924  1  0.95865215  0.11582972  0.94443440  1
  C  C925  1  0.91705621  0.19083068  0.78569221  1
  C  C926  1  0.95179647  0.21210289  0.81720242  1
  C  C927  1  0.96549187  0.18885799  0.87094240  1
  O  O928  1  0.77064955  0.11876768  0.94999373  1
  C  C929  1  0.85469734  0.12923561  0.77253346  1
  O  O930  1  0.83400687  0.09870188  0.79725089  1
  C  C931  1  0.79489597  0.20440315  0.95169755  1
  C  C932  1  0.80247794  0.14966073  0.95488358  1
  H  H933  1  0.96872252  0.24527724  0.80344746  1
  H  H934  1  0.99204991  0.20096609  0.89979476  1
  Cu  Cu935  1  0.77211926  0.06062279  0.98704320  1
  H  H936  1  0.78346923  0.01352697  0.82484562  1
  C  C937  1  0.99822616  0.09132185  0.94306198  1
  H  H938  1  0.90248934  0.12955882  0.99588641  1
  C  C939  1  0.93284005  0.10991931  0.99345499  1
  H  H940  1  0.85879819  0.22491713  0.98074177  1
  O  O941  1  0.83705470  0.13793567  0.97089520  1
  C  C942  1  0.82750691  0.23887851  0.96825108  1
  C  C943  1  0.75212016  0.00652796  0.80120675  1
  C  C944  1  0.97168676  0.24516381  0.99986782  1
  C  C945  1  0.66210393  0.25182894  0.91878609  1
  H  H946  1  0.60731232  0.49331089  0.96756715  1
  C  C947  1  0.54019432  0.47950040  0.97622540  1
  C  C948  1  0.62123388  0.27019604  0.91580449  1
  C  C949  1  0.69760491  0.28365718  0.93303749  1
  C  C950  1  0.58197838  0.46539823  0.96581558  1
  C  C951  1  0.59265702  0.41558344  0.95722831  1
  C  C952  1  0.64753399  0.35525126  0.93471581  1
  C  C953  1  0.61176333  0.32129038  0.92753427  1
  N  N954  1  0.56980278  0.33263157  0.93794183  1
  O  O955  1  0.66491856  0.44026275  0.93906314  1
  C  C956  1  0.63734102  0.40816920  0.94261458  1
  C  C957  1  0.68856293  0.33394971  0.94001946  1
  H  H958  1  0.71471345  0.35895421  0.94225293  1
  C  C959  1  0.55908593  0.37849776  0.95668259  1
  H  H960  1  0.51602142  0.45831804  0.78363659  1
  H  H961  1  0.54802447  0.30551894  0.92746578  1
  C  C962  1  0.51526302  0.39122421  0.97172354  1
  C  C963  1  0.50758201  0.44071308  0.97960724  1
  C  C964  1  0.74261140  0.26876029  0.94017526  1
  H  H965  1  0.50707576  0.36810086  0.83401145  1
  H  H966  1  0.50671260  0.28956029  0.85841539  1
  H  H967  1  0.99693450  0.46932112  0.78080148  1
  H  H968  1  0.76733558  0.34234735  0.96441318  1
  C  C969  1  0.90153485  0.34794731  0.75190143  1
  C  C970  1  0.98669149  0.34239393  0.79317490  1
  C  C971  1  0.77440684  0.30341942  0.95411499  1
  C  C972  1  0.90621316  0.33742799  0.81935589  1
  C  C973  1  0.95676081  0.30106278  0.88637701  1
  H  H974  1  0.92782859  0.28914040  0.90864859  1
  C  C975  1  0.95266420  0.32547251  0.83167784  1
  C  C976  1  0.81393253  0.28559357  0.97247428  1
  H  H977  1  0.97960887  0.49151615  0.93459946  1
  O  O978  1  0.87684223  0.33765224  0.85325276  1
  H  H979  1  0.83287403  0.33976580  0.75765597  1
  H  H980  1  0.94029951  0.26471048  0.99719852  1
  C  C981  1  0.99777081  0.29163991  0.91045363  1
  H  H982  1  0.98320044  0.43549003  0.98262839  1
  C  C983  1  0.61147113  0.55877217  0.15878153  1
  C  C984  1  0.56761217  0.55207744  0.15319468  1
  C  C985  1  0.62825973  0.59533038  0.19598112  1
  H  H986  1  0.62974309  0.71240396  0.18065302  1
  C  C987  1  0.54299624  0.58347594  0.18827011  1
  H  H988  1  0.55301224  0.52204955  0.12484457  1
  Cu  Cu989  1  0.73665126  0.52373896  0.11189956  1
  O  O990  1  0.68314135  0.54662253  0.12727655  1
  C  C991  1  0.64393387  0.53085771  0.12506445  1
  C  C992  1  0.55738393  0.62370861  0.22267927  1
  H  H993  1  0.66243844  0.60381657  0.19140696  1
  C  C994  1  0.64256615  0.70594347  0.22611546  1
  C  C995  1  0.60155760  0.62631009  0.23009766  1
  H  H996  1  0.53409072  0.64842566  0.24327759  1
  C  C997  1  0.66988952  0.74130382  0.24831240  1
  C  C998  1  0.75814345  0.67087965  0.13408230  1
  O  O999  1  0.75487257  0.64852472  0.09487585  1
  H  H1000  1  0.97700952  0.71398856  0.04741654  1
  C  C1001  1  0.85099288  0.58233749  0.09447994  1
  C  C1002  1  0.85971034  0.54591802  0.13519843  1
  H  H1003  1  0.82259040  0.58470496  0.06691244  1
  H  H1004  1  0.94905614  0.64527397  0.11054756  1
  C  C1005  1  0.88389976  0.61892755  0.09275871  1
  C  C1006  1  0.93039842  0.57907588  0.16050964  1
  C  C1007  1  0.97458802  0.56956816  0.18544302  1
  C  C1008  1  0.92400727  0.61876465  0.12193327  1
  C  C1009  1  0.89654188  0.54447418  0.16837652  1
  C  C1010  1  0.87724358  0.65454075  0.04515842  1
  H  H1011  1  0.99416357  0.64352537  0.22455664  1
  H  H1012  1  0.98229873  0.53503017  0.05776201  1
  C  C1013  1  0.98897139  0.52210634  0.17801931  1
  O  O1014  1  0.79521686  0.50843251  0.10046684  1
  O  O1015  1  0.90572001  0.68706578  0.03155497  1
  H  H1016  1  0.96544072  0.62084079  0.02635818  1
  Cu  Cu1017  1  0.79567427  0.69368411  0.00903890  1
  O  O1018  1  0.84290043  0.65265213  0.01530621  1
  C  C1019  1  0.99987596  0.60796230  0.02789283  1
  C  C1020  1  0.82468872  0.50660225  0.14077364  1
  H  H1021  1  0.89939437  0.51294892  0.20077935  1
  C  C1022  1  0.99817207  0.72524103  0.01265753  1
  C  C1023  1  0.74889041  0.96951368  0.24422295  1
  H  H1024  1  0.62464493  0.97523994  0.18209634  1
  C  C1025  1  0.68021608  0.78478936  0.20914193  1
  O  O1026  1  0.66761972  0.79540865  0.16050598  1
  C  C1027  1  0.52365633  0.88377355  0.20283482  1
  C  C1028  1  0.55615762  0.92473672  0.19772891  1
  O  O1029  1  0.55126590  0.96040473  0.16796638  1
  C  C1030  1  0.63222532  0.94569242  0.21385865  1
  H  H1031  1  0.73110636  0.83906630  0.14854390  1
  C  C1032  1  0.70821355  0.96819419  0.21450603  1
  C  C1033  1  0.74061501  0.83807132  0.19604831  1
  C  C1034  1  0.71644001  0.81242660  0.23821487  1
  C  C1035  1  0.67261001  0.93763461  0.24006701  1
  C  C1036  1  0.59831084  0.91451488  0.22622780  1
  C  C1037  1  0.53487296  0.84109653  0.24114565  1
  H  H1038  1  0.66959612  0.99857080  0.14211605  1
  C  C1039  1  0.70087349  0.99710193  0.16387481  1
  C  C1040  1  0.50359431  0.80302735  0.24388118  1
  C  C1041  1  0.96178895  0.80523893  0.01821793  1
  O  O1042  1  0.96356411  0.85087905  0.00757258  1
  O  O1043  1  0.92486979  0.93854449  0.17016246  1
  H  H1044  1  0.85135819  0.91785786  0.20282243  1
  O  O1045  1  0.93945811  0.92405183  0.07416682  1
  C  C1046  1  0.82469047  0.79311000  0.02180297  1
  O  O1047  1  0.79162847  0.76522265  0.02421328  1
  C  C1048  1  0.87173598  0.85487789  0.07283499  1
  C  C1049  1  0.80335512  0.82786827  0.11521858  1
  C  C1050  1  0.78077952  0.85660372  0.21337556  1
  Cu  Cu1051  1  0.99005978  0.89156432  0.06452290  1
  C  C1052  1  0.83474500  0.82783864  0.07044224  1
  H  H1053  1  0.77438539  0.80413159  0.10984581  1
  C  C1054  1  0.84768989  0.89166510  0.16675079  1
  H  H1055  1  0.89572416  0.85163886  0.03727072  1
  C  C1056  1  0.78177861  0.99687023  0.22022920  1
  C  C1057  1  0.91513017  0.92009240  0.11956536  1
  C  C1058  1  0.87646274  0.88981831  0.11905130  1
  O  O1059  1  0.93275481  0.78422514  0.04724529  1
  C  C1060  1  0.81250970  0.85953613  0.16311033  1
  H  H1061  1  0.69825926  0.62957506  0.42582890  1
  C  C1062  1  0.68257482  0.59523067  0.44287763  1
  C  C1063  1  0.64102180  0.59956643  0.46539457  1
  C  C1064  1  0.69867871  0.54796427  0.43548304  1
  H  H1065  1  0.56248273  0.70288242  0.38678867  1
  H  H1066  1  0.63816464  0.62761816  0.34607259  1
  C  C1067  1  0.64613102  0.66203981  0.32171616  1
  C  C1068  1  0.67240774  0.69683329  0.34865829  1
  C  C1069  1  0.61870029  0.55700963  0.48170090  1
  H  H1070  1  0.68314299  0.69496344  0.39733379  1
  C  C1071  1  0.53561532  0.72757431  0.37933008  1
  O  O1072  1  0.52442951  0.63310507  0.35757669  1
  H  H1073  1  0.72898542  0.61447443  0.34970369  1
  O  O1074  1  0.63256553  0.68802896  0.46959639  1
  C  C1075  1  0.68495662  0.73885466  0.31164932  1
  C  C1076  1  0.61818779  0.64517474  0.48212697  1
  C  C1077  1  0.62918000  0.66559501  0.26202730  1
  C  C1078  1  0.63604320  0.51012447  0.47228993  1
  C  C1079  1  0.67687021  0.50481474  0.44666296  1
  C  C1080  1  0.74148253  0.54531670  0.40218579  1
  C  C1081  1  0.74522123  0.74735031  0.48229829  1
  H  H1082  1  0.58468067  0.55974210  0.49380983  1
  Cu  Cu1083  1  0.61102687  0.74754310  0.49538589  1
  C  C1084  1  0.75121914  0.58349781  0.35785324  1
  N  N1085  1  0.86106471  0.54377549  0.31425566  1
  C  C1086  1  0.82197991  0.54731926  0.34182510  1
  C  C1087  1  0.86650738  0.62494157  0.45068740  1
  C  C1088  1  0.79081755  0.58577629  0.32977057  1
  H  H1089  1  0.90837560  0.56855044  0.44345954  1
  C  C1090  1  0.93080549  0.68836723  0.40738294  1
  N  N1091  1  0.90597066  0.60600075  0.44350558  1
  C  C1092  1  0.93814756  0.63532607  0.42322945  1
  C  C1093  1  0.85998527  0.67819019  0.44428880  1
  C  C1094  1  0.89133242  0.71662738  0.42482412  1
  C  C1095  1  0.96428322  0.71320749  0.37856266  1
  C  C1096  1  0.97749766  0.61242139  0.41159802  1
  C  C1097  1  0.83215087  0.59458062  0.47336809  1
  C  C1098  1  0.82202011  0.69948008  0.46217368  1
  H  H1099  1  0.98359052  0.57414241  0.42119622  1
  H  H1100  1  0.81572472  0.74050802  0.46273547  1
  H  H1101  1  0.83824687  0.55585456  0.47941692  1
  C  C1102  1  0.93250473  0.51538042  0.30113057  1
  C  C1103  1  0.77262134  0.51210114  0.41960645  1
  C  C1104  1  0.89089613  0.50951019  0.32626304  1
  H  H1105  1  0.79978740  0.61864913  0.30388868  1
  H  H1106  1  0.86927016  0.57257531  0.28747197  1
  C  C1107  1  0.81156376  0.51114716  0.38822255  1
  C  C1108  1  0.78816319  0.67000684  0.48180999  1
  C  C1109  1  0.79311234  0.61647718  0.48358904  1
  H  H1110  1  0.76552309  0.58904782  0.49005744  1
  H  H1111  1  0.94750997  0.74319829  0.48189723  1
  H  H1112  1  0.99467803  0.67468976  0.48696178  1
  H  H1113  1  0.94088062  0.54316044  0.26980448  1
  H  H1114  1  0.50979381  0.77096495  0.27081565  1
  C  C1115  1  0.50535460  0.80932360  0.37809066  1
  H  H1116  1  0.72819799  0.76524575  0.37578135  1
  N  N1117  1  0.71252016  0.77102686  0.33511758  1
  O  O1118  1  0.61127986  0.77569121  0.41827894  1
  C  C1119  1  0.73091410  0.80693628  0.30130447  1
  C  C1120  1  0.54096329  0.77846764  0.38458189  1
  O  O1121  1  0.58262251  0.84927789  0.40104972  1
  C  C1122  1  0.58127289  0.80561421  0.40104388  1
  H  H1123  1  0.64871501  0.83540247  0.32452761  1
  C  C1124  1  0.64637863  0.86613372  0.29303732  1
  H  H1125  1  0.71274944  0.89307240  0.30355392  1
  C  C1126  1  0.67986473  0.89775524  0.28122692  1
  H  H1127  1  0.57830142  0.80684228  0.29210625  1
  N  N1128  1  0.57463449  0.83631157  0.26744915  1
  H  H1129  1  0.50807107  0.84865965  0.38247305  1
  C  C1130  1  0.71767401  0.83070670  0.48611151  1
  C  C1131  1  0.51095929  0.97523238  0.49498510  1
  O  O1132  1  0.74161065  0.84226641  0.44670027  1
  C  C1133  1  0.60556307  0.87134780  0.26159705  1
  C  C1134  1  0.77060074  0.82943419  0.32054232  1
  H  H1135  1  0.95844795  0.75158287  0.36242741  1
  O  O1136  1  0.88565465  0.75983711  0.41825963  1
  H  H1137  1  0.76479974  0.75948815  0.44406930  1
  H  H1138  1  0.75453924  0.94843269  0.28681796  1
  O  O1139  1  0.92792911  0.97784384  0.41905834  1
  C  C1140  1  0.79228598  0.85708783  0.27733721  1
  H  H1141  1  0.77979193  0.82819915  0.36964928  1
  O  O1142  1  0.99589825  0.96563581  0.39202553  1
  O  O1143  1  0.83285141  0.96572535  0.29097295  1
  C  C1144  1  0.96157130  0.99467387  0.40620508  1
  H  H1145  1  0.81998663  0.87751672  0.29581381  1
  C  C1146  1  0.82443239  0.99431877  0.25125027  1
  O  O1147  1  0.65824056  0.65723165  0.63699432  1
  C  C1148  1  0.65924956  0.69620083  0.61278907  1
  Cu  Cu1149  1  0.57628323  0.71357700  0.65403720  1
  C  C1150  1  0.69296474  0.71420237  0.57126624  1
  O  O1151  1  0.62800589  0.72834973  0.62588566  1
  Cu  Cu1152  1  0.55455538  0.69219089  0.54294401  1
  O  O1153  1  0.53118647  0.70184294  0.70572671  1
  C  C1154  1  0.72636629  0.68320487  0.55190983  1
  H  H1155  1  0.72893012  0.64571824  0.56615512  1
  C  C1156  1  0.71941938  0.71415046  0.74265047  1
  O  O1157  1  0.57190381  0.53759761  0.64737279  1
  O  O1158  1  0.58238165  0.64046481  0.50538620  1
  C  C1159  1  0.74614467  0.74011398  0.70197772  1
  O  O1160  1  0.53689596  0.74963276  0.57007457  1
  H  H1161  1  0.86552874  0.50405870  0.61914822  1
  C  C1162  1  0.92855631  0.51562560  0.57941763  1
  C  C1163  1  0.97813036  0.61271806  0.71979408  1
  C  C1164  1  0.88809299  0.53023114  0.60101414  1
  H  H1165  1  0.77039027  0.64073221  0.68367073  1
  C  C1166  1  0.82940739  0.65004208  0.63873002  1
  C  C1167  1  0.85988407  0.68346793  0.61246324  1
  C  C1168  1  0.78695522  0.71772157  0.67574966  1
  H  H1169  1  0.92049477  0.69154748  0.58017487  1
  C  C1170  1  0.79222349  0.66664792  0.66513711  1
  N  N1171  1  0.89955089  0.66650586  0.59527267  1
  C  C1172  1  0.95118820  0.60438541  0.56702648  1
  C  C1173  1  0.95904258  0.55486762  0.56448615  1
  C  C1174  1  0.83734997  0.59559853  0.64007914  1
  O  O1175  1  0.81269875  0.56861403  0.66415396  1
  C  C1176  1  0.87965624  0.58050665  0.60859584  1
  C  C1177  1  0.90959311  0.61762923  0.58955479  1
  C  C1178  1  0.96841419  0.71462918  0.70677167  1
  H  H1179  1  0.97752151  0.63215245  0.55879663  1
  C  C1180  1  0.93297504  0.68629106  0.72688867  1
  C  C1181  1  0.85273444  0.73581275  0.61785078  1
  C  C1182  1  0.93813674  0.63552541  0.73082083  1
  H  H1183  1  0.90293588  0.70334950  0.74155025  1
  N  N1184  1  0.98129328  0.56308955  0.73478925  1
  C  C1185  1  0.75175196  0.70011418  0.50543762  1
  H  H1186  1  0.98983570  0.54422625  0.54524822  1
  H  H1187  1  0.90918925  0.61283599  0.74273719  1
  C  C1188  1  0.68873100  0.76318849  0.55585105  1
  C  C1189  1  0.71629857  0.77891647  0.51031693  1
  H  H1190  1  0.66433214  0.78595514  0.58026653  1
  H  H1191  1  0.70393376  0.98185613  0.66582581  1
  C  C1192  1  0.70742704  0.98741192  0.71579441  1
  C  C1193  1  0.54565493  0.78997868  0.54602763  1
  C  C1194  1  0.66643759  0.78093327  0.73363154  1
  C  C1195  1  0.69502592  0.80436362  0.69593636  1
  O  O1196  1  0.65936412  0.87939677  0.68165132  1
  C  C1197  1  0.68831705  0.85425905  0.66413417  1
  C  C1198  1  0.54643071  0.96878281  0.66613951  1
  Cu  Cu1199  1  0.71099587  0.90791866  0.56012001  1
  O  O1200  1  0.72114136  0.87333667  0.63009402  1
  O  O1201  1  0.58385036  0.80044721  0.53156104  1
  H  H1202  1  0.54031508  0.95685541  0.50898962  1
  H  H1203  1  0.54611402  0.87737895  0.50155838  1
  N  N1204  1  0.50920363  0.95914935  0.63672067  1
  C  C1205  1  0.51311065  0.86635708  0.50850981  1
  H  H1206  1  0.63480619  0.79828868  0.74137484  1
  O  O1207  1  0.72463213  0.96738695  0.52288048  1
  C  C1208  1  0.55869858  0.94120977  0.72068032  1
  O  O1209  1  0.69066162  0.86042755  0.51179694  1
  C  C1210  1  0.57883697  0.99981253  0.63971461  1
  C  C1211  1  0.73478527  0.78661745  0.67936119  1
  C  C1212  1  0.50842625  0.81962738  0.52771794  1
  C  C1213  1  0.62653589  0.98369272  0.72344229  1
  C  C1214  1  0.59691432  0.95165357  0.74975549  1
  C  C1215  1  0.74841492  0.99485658  0.73965871  1
  C  C1216  1  0.98233335  0.99126007  0.62449909  1
  C  C1217  1  0.98584978  0.89165093  0.58447199  1
  H  H1218  1  0.75095478  0.80321721  0.64092277  1
  H  H1219  1  0.87256111  0.76656929  0.59948083  1
  C  C1220  1  0.95975805  0.86830521  0.70979677  1
  C  C1221  1  0.96831845  0.76262177  0.51585503  1
  O  O1222  1  0.88015444  0.91799688  0.70037871  1
  C  C1223  1  0.81764869  0.75208732  0.65117483  1
  H  H1224  1  0.81590556  0.79129437  0.65736530  1
  C  C1225  1  0.96355479  0.77043594  0.70812104  1
  Cu  Cu1226  1  0.83138828  0.97463480  0.59935886  1
  C  C1227  1  0.98672205  0.83870071  0.56875258  1
  H  H1228  1  0.89748382  0.77177957  0.67620172  1
  O  O1229  1  0.79590941  0.97219804  0.53098825  1
  C  C1230  1  0.92657038  0.79225924  0.68493922  1
  O  O1231  1  0.88142334  0.97779512  0.55542805  1
  C  C1232  1  0.99808229  0.84629037  0.73288146  1
  C  C1233  1  0.95713500  0.80999129  0.53311069  1
  O  O1234  1  0.82356370  0.98990221  0.72678873  1
  C  C1235  1  0.92524925  0.84372960  0.68700098  1
  H  H1236  1  0.92611411  0.82037516  0.50961988  1
  C  C1237  1  0.78728697  0.99077738  0.70286451  1
  O  O1238  1  0.78463430  0.97708195  0.64745392  1
  C  C1239  1  0.88530146  0.87584922  0.67514165  1
  C  C1240  1  0.75958567  0.99144286  0.52402426  1
  O  O1241  1  0.86006477  0.86019779  0.64045200  1
  H  H1242  1  0.95658344  0.90759411  0.70990768  1
  C  C1243  1  0.94977379  0.91921984  0.57234575  1
  C  C1244  1  0.95113919  0.96792495  0.59327012  1
  H  H1245  1  0.92095970  0.90365356  0.54897265  1
  C  C1246  1  0.55732253  0.61574178  0.96186079  1
  O  O1247  1  0.62677839  0.62409920  0.92759357  1
  C  C1248  1  0.59199473  0.64609614  0.93784256  1
  O  O1249  1  0.58898493  0.69030691  0.92063883  1
  Cu  Cu1250  1  0.67451453  0.65903334  0.90117934  1
  C  C1251  1  0.56620580  0.56649871  0.96532383  1
  H  H1252  1  0.59874631  0.55418126  0.95773836  1
  O  O1253  1  0.65414736  0.66912750  0.81989573  1
  C  C1254  1  0.51842138  0.63664417  0.98199870  1
  O  O1255  1  0.72704360  0.69216064  0.87823286  1
  C  C1256  1  0.64894251  0.71236311  0.79881388  1
  O  O1257  1  0.51444182  0.69220208  0.86525331  1
  Cu  Cu1258  1  0.56766080  0.71063539  0.84606683  1
  C  C1259  1  0.53245191  0.53262620  0.97912159  1
  H  H1260  1  0.51191607  0.67514946  0.98040392  1
  O  O1261  1  0.61448543  0.73517036  0.80767205  1
  H  H1262  1  0.72848757  0.67715693  0.76089128  1
  C  C1263  1  0.67990186  0.73578362  0.75890120  1
  O  O1264  1  0.77702631  0.66057561  0.93820300  1
  C  C1265  1  0.76516542  0.68897643  0.89604915  1
  C  C1266  1  0.96225661  0.57943826  0.91501382  1
  O  O1267  1  0.93498320  0.55843751  0.94072326  1
  H  H1268  1  0.84746477  0.66874133  0.90772060  1
  C  C1269  1  0.84157992  0.70226368  0.88361739  1
  H  H1270  1  0.89305131  0.63633993  0.90501892  1
  C  C1271  1  0.96201042  0.62905680  0.88737532  1
  C  C1272  1  0.92309560  0.65288174  0.88543280  1
  C  C1273  1  0.92080013  0.70193012  0.86275447  1
  C  C1274  1  0.95692909  0.72533507  0.83639196  1
  C  C1275  1  0.87789809  0.72602415  0.85960058  1
  C  C1276  1  0.80007271  0.71785545  0.86836461  1
  C  C1277  1  0.99482402  0.69786918  0.83546918  1
  Cu  Cu1278  1  0.89759930  0.74621520  0.99692659  1
  H  H1279  1  0.95784837  0.54466683  0.75576654  1
  H  H1280  1  0.60293020  0.93344539  0.79348241  1
  O  O1281  1  0.53795070  0.88817676  0.80246988  1
  C  C1282  1  0.67112379  0.99221304  0.75018419  1
  C  C1283  1  0.53188169  0.90474192  0.75272854  1
  O  O1284  1  0.85195054  0.78902979  0.98020486  1
  C  C1285  1  0.82882261  0.78904022  0.82402702  1
  O  O1286  1  0.78890525  0.84789362  0.76897739  1
  H  H1287  1  0.95452651  0.76250117  0.81864749  1
  H  H1288  1  0.89778365  0.79521446  0.82189862  1
  C  C1289  1  0.79255944  0.75977117  0.83558051  1
  C  C1290  1  0.82073647  0.84000197  0.79918053  1
  H  H1291  1  0.76050886  0.77638360  0.83062958  1
  C  C1292  1  0.87002275  0.77162680  0.83217633  1
  O  O1293  1  0.85139310  0.87432455  0.80141232  1
  C  C1294  1  0.99722967  0.77480002  0.99762320  1
  Cu  Cu1295  1  0.84160750  0.93147901  0.76386221  1
