# generated using pymatgen
data_Cu5H9(C3N4)9
_symmetry_space_group_name_H-M   'P 1'
_cell_length_a   16.91810326
_cell_length_b   30.29268942
_cell_length_c   39.81219917
_cell_angle_alpha   90.00000000
_cell_angle_beta   90.00000000
_cell_angle_gamma   90.00000000
_symmetry_Int_Tables_number   1
_chemical_formula_structural   Cu5H9(C3N4)9
_chemical_formula_sum   'Cu80 H144 C432 N576'
_cell_volume   20403.54694925
_cell_formula_units_Z   16
loop_
 _symmetry_equiv_pos_site_id
 _symmetry_equiv_pos_as_xyz
  1  'x, y, z'
loop_
 _atom_site_type_symbol
 _atom_site_label
 _atom_site_symmetry_multiplicity
 _atom_site_fract_x
 _atom_site_fract_y
 _atom_site_fract_z
 _atom_site_occupancy
  C  C0  1  0.22936413  0.12078926  0.18208472  1
  C  C1  1  0.30264000  0.14394647  0.18290595  1
  H  H2  1  0.19840436  0.11479841  0.15651618  1
  N  N3  1  0.10760839  0.19367734  0.18302391  1
  N  N4  1  0.16079743  0.20511563  0.13348071  1
  C  C5  1  0.33937259  0.16818658  0.15180447  1
  N  N6  1  0.32596179  0.15988948  0.11839816  1
  C  C7  1  0.16365520  0.21750803  0.16532058  1
  C  C8  1  0.19959659  0.10360737  0.21224977  1
  C  C9  1  0.34316627  0.14835322  0.21360620  1
  N  N10  1  0.28912712  0.09869842  0.08357280  1
  N  N11  1  0.26176130  0.11662138  0.10839441  1
  H  H12  1  0.40358072  0.16389706  0.21495739  1
  C  C13  1  0.11181737  0.08525176  0.21307759  1
  N  N14  1  0.09478221  0.16128675  0.12913962  1
  N  N15  1  0.06634098  0.15407726  0.15679792  1
  N  N16  1  0.08634968  0.20379597  0.22479426  1
  N  N17  1  0.08709480  0.05551042  0.19729688  1
  N  N18  1  0.38489654  0.19235820  0.09442716  1
  N  N19  1  0.39081256  0.19929966  0.15315743  1
  H  H20  1  0.22334391  0.23229498  0.22745385  1
  N  N21  1  0.23128443  0.05386192  0.07388787  1
  N  N22  1  0.04901351  0.10636085  0.23419141  1
  N  N23  1  0.14529579  0.02401779  0.16780372  1
  C  C24  1  0.08013797  0.24596964  0.23213363  1
  C  C25  1  0.23883557  0.10392598  0.24344540  1
  C  C26  1  0.31195378  0.12684030  0.24213443  1
  N  N27  1  0.31717456  0.04911922  0.03292213  1
  C  C28  1  0.24928099  0.03202000  0.04678864  1
  N  N29  1  0.24471925  0.00960042  0.17603103  1
  N  N30  1  0.41936421  0.21699940  0.11454364  1
  H  H31  1  0.00088907  0.02581493  0.18736990  1
  N  N32  1  0.44452435  0.01323390  0.05499475  1
  N  N33  1  0.35901729  0.01466189  0.00416411  1
  C  C34  1  0.90026200  0.01596890  0.15427559  1
  N  N35  1  0.53386709  0.04258123  0.05292979  1
  N  N36  1  0.58248780  0.02058921  0.06822776  1
  N  N37  1  0.78251267  0.00452128  0.19578794  1
  N  N38  1  0.74202437  0.03028130  0.23040889  1
  H  H39  1  0.98878884  0.23869650  0.16945571  1
  H  H40  1  0.94994403  0.24644031  0.23608913  1
  N  N41  1  0.84652438  0.21791100  0.14821187  1
  N  N42  1  0.85807913  0.06170390  0.20687703  1
  N  N43  1  0.90446712  0.14761059  0.14528585  1
  C  C44  1  0.83603391  0.24267028  0.20905115  1
  C  C45  1  0.86318930  0.20917732  0.18182337  1
  C  C46  1  0.84431914  0.02947127  0.18547120  1
  C  C47  1  0.97833451  0.01382215  0.16218118  1
  Cu  Cu48  1  0.96894486  0.13855473  0.21658263  1
  N  N49  1  0.90321613  0.17173027  0.18659034  1
  N  N50  1  0.78195976  0.06311175  0.23513845  1
  N  N51  1  0.87752986  0.17306147  0.12478932  1
  N  N52  1  0.22723611  0.03062396  0.44019870  1
  N  N53  1  0.18700193  0.06201722  0.43280550  1
  N  N54  1  0.16784154  0.06795659  0.38917260  1
  Cu  Cu55  1  0.25393930  0.08969391  0.36778061  1
  Cu  Cu56  1  0.11210611  0.11779584  0.38155558  1
  N  N57  1  0.23276661  0.16858090  0.39430901  1
  N  N58  1  0.27534340  0.13693103  0.39843983  1
  N  N59  1  0.19303893  0.12004751  0.31710298  1
  N  N60  1  0.24080376  0.15016157  0.31811146  1
  N  N61  1  0.10694681  0.13182126  0.33610885  1
  N  N62  1  0.24021072  0.21153659  0.42393327  1
  C  C63  1  0.05356763  0.15456103  0.32027881  1
  Cu  Cu64  1  0.26218942  0.02577529  0.48533429  1
  N  N65  1  0.33657930  0.13718693  0.30713353  1
  N  N66  1  0.41392793  0.14870657  0.33426016  1
  N  N67  1  0.17518318  0.22269226  0.45717969  1
  N  N68  1  0.03809709  0.16588770  0.29083257  1
  Cu  Cu69  1  0.06752316  0.23806078  0.30585198  1
  H  H70  1  0.05165077  0.20643712  0.38231964  1
  N  N71  1  0.47367203  0.14777536  0.31701586  1
  N  N72  1  0.39200809  0.06889616  0.46438741  1
  C  C73  1  0.36158763  0.13085273  0.27556161  1
  H  H74  1  0.21891670  0.08427855  0.26469816  1
  N  N75  1  0.43732321  0.13929391  0.27401831  1
  C  C76  1  0.46015262  0.22817612  0.42199354  1
  N  N77  1  0.13527703  0.01869146  0.36880503  1
  C  C78  1  0.38593548  0.23115098  0.40678685  1
  N  N79  1  0.43165953  0.14277797  0.47723401  1
  H  H80  1  0.46934941  0.22642985  0.44949802  1
  N  N81  1  0.43189636  0.09802675  0.45111387  1
  C  C82  1  0.31100312  0.23315397  0.42933691  1
  N  N83  1  0.20944556  0.24824502  0.47560098  1
  N  N84  1  0.01854556  0.06979922  0.26511896  1
  C  C85  1  0.43925384  0.24677913  0.35099688  1
  C  C86  1  0.37132276  0.23674473  0.37183367  1
  C  C87  1  0.48611136  0.01553094  0.39256358  1
  H  H88  1  0.31200406  0.23746144  0.36227350  1
  N  N89  1  0.31034541  0.02008396  0.29411857  1
  N  N90  1  0.35425590  0.03643089  0.33104672  1
  Cu  Cu91  1  0.10804733  0.15576091  0.25393789  1
  C  C92  1  0.40907521  0.00069327  0.38480772  1
  C  C93  1  0.36790115  0.00143461  0.34895226  1
  N  N94  1  0.63543980  0.00493259  0.46564072  1
  C  C95  1  0.51979608  0.00389676  0.42408896  1
  N  N96  1  0.92082177  0.03815361  0.30484819  1
  N  N97  1  0.94952502  0.07687467  0.27365693  1
  C  C98  1  0.90800597  0.15454104  0.33288795  1
  C  C99  1  0.51545579  0.24227772  0.36476795  1
  C  C100  1  0.84747678  0.18778340  0.38474467  1
  C  C101  1  0.90454218  0.17136031  0.44478930  1
  N  N102  1  0.69500459  0.11267548  0.38531911  1
  N  N103  1  0.72655951  0.21730989  0.45405177  1
  N  N104  1  0.74944027  0.24555507  0.43481163  1
  C  C105  1  0.75400615  0.17121403  0.34059792  1
  N  N106  1  0.69258750  0.14513029  0.34937693  1
  C  C107  1  0.98425735  0.16846848  0.34369430  1
  C  C108  1  0.92521275  0.19892317  0.39422374  1
  H  H109  1  0.89524483  0.13542292  0.30960654  1
  N  N110  1  0.72851602  0.19814556  0.31601316  1
  C  C111  1  0.99272885  0.19428959  0.37319785  1
  N  N112  1  0.64436048  0.08419077  0.38567663  1
  N  N113  1  0.87007769  0.05592051  0.33953924  1
  C  C114  1  0.60538718  0.01970901  0.43658722  1
  N  N115  1  0.62653656  0.20708771  0.44440509  1
  Cu  Cu116  1  0.95444135  0.19738539  0.27145295  1
  N  N117  1  0.93404135  0.20484299  0.43025997  1
  C  C118  1  0.52500148  0.23186015  0.39933830  1
  N  N119  1  0.72710178  0.02899172  0.47195564  1
  C  C120  1  0.60887632  0.22893330  0.41689935  1
  H  H121  1  0.51933413  0.03776702  0.37640997  1
  N  N122  1  0.83205502  0.02384966  0.34890530  1
  C  C123  1  0.84163688  0.16782429  0.35306642  1
  N  N124  1  0.65488646  0.04875706  0.42322522  1
  N  N125  1  0.87846437  0.14043529  0.45880126  1
  Cu  Cu126  1  0.77380373  0.13895826  0.47623234  1
  N  N127  1  0.60483145  0.15971928  0.32689286  1
  N  N128  1  0.95791768  0.24845133  0.30003900  1
  H  H129  1  0.79567196  0.19825025  0.39960856  1
  N  N130  1  0.63126892  0.18845942  0.30801271  1
  N  N131  1  0.73920406  0.05338618  0.44817354  1
  Cu  Cu132  1  0.95066798  0.11583460  0.49346265  1
  C  C133  1  0.40592010  0.18909013  0.58989300  1
  C  C134  1  0.32555706  0.20319657  0.59393289  1
  C  C135  1  0.27321997  0.19649218  0.56753509  1
  Cu  Cu136  1  0.17876036  0.05504265  0.63523635  1
  C  C137  1  0.42703145  0.16541969  0.55995935  1
  C  C138  1  0.29002725  0.17183747  0.53793897  1
  C  C139  1  0.36909106  0.15640124  0.53617639  1
  H  H140  1  0.24827870  0.17125704  0.51691584  1
  N  N141  1  0.12106982  0.09151480  0.60560771  1
  N  N142  1  0.10468252  0.14635966  0.61611681  1
  N  N143  1  0.36296040  0.10162051  0.64303440  1
  N  N144  1  0.39242009  0.06510642  0.64520886  1
  N  N145  1  0.12344716  0.20984329  0.55135326  1
  C  C146  1  0.05948075  0.07007524  0.59202309  1
  N  N147  1  0.23487517  0.01313218  0.66288082  1
  Cu  Cu148  1  0.14228777  0.00904744  0.68991678  1
  C  C149  1  0.18586308  0.21660055  0.57010689  1
  N  N150  1  0.12348704  0.17319359  0.51434652  1
  N  N151  1  0.42042467  0.13508843  0.66658390  1
  N  N152  1  0.07949594  0.14177754  0.51627271  1
  N  N153  1  0.04203033  0.15012827  0.63097591  1
  C  C154  1  0.05060788  0.02152061  0.60856038  1
  N  N155  1  0.31346734  0.06568865  0.54024215  1
  N  N156  1  0.27149489  0.03499503  0.53338655  1
  H  H157  1  0.30733374  0.22470943  0.61542830  1
  N  N158  1  0.04318726  0.23824562  0.56826924  1
  C  C159  1  0.46820320  0.20744988  0.61242864  1
  Cu  Cu160  1  0.31287397  0.01014489  0.62789773  1
  C  C161  1  0.04350634  0.02107011  0.64366645  1
  N  N162  1  0.45299621  0.23659313  0.63771296  1
  H  H163  1  0.47365087  0.19269871  0.71686265  1
  N  N164  1  0.04815749  0.01098689  0.71522561  1
  H  H165  1  0.03682254  0.05397916  0.65768178  1
  H  H166  1  0.49318049  0.15631641  0.55515566  1
  C  C167  1  0.33352362  0.24578094  0.73432243  1
  N  N168  1  0.17032659  0.24257760  0.59569407  1
  N  N169  1  0.06826919  0.24639472  0.66989841  1
  C  C170  1  0.48333490  0.11231122  0.67828505  1
  N  N171  1  0.27048140  0.22159994  0.73680087  1
  N  N172  1  0.01458854  0.20348139  0.64914953  1
  N  N173  1  0.47627712  0.07000997  0.67188267  1
  Cu  Cu174  1  0.00659285  0.14507980  0.55510235  1
  N  N175  1  0.01945191  0.08599255  0.56670193  1
  N  N176  1  0.40810188  0.24759121  0.52156947  1
  N  N177  1  0.39539651  0.22415855  0.74938401  1
  C  C178  1  0.38969059  0.12955256  0.50333900  1
  N  N179  1  0.35794851  0.08989154  0.50041740  1
  N  N180  1  0.67329616  0.00928305  0.65713092  1
  C  C181  1  0.75738400  0.11355591  0.73535701  1
  C  C182  1  0.73754838  0.24607975  0.54187753  1
  N  N183  1  0.70000675  0.05272763  0.63285277  1
  C  C184  1  0.73192704  0.23621589  0.60309278  1
  C  C185  1  0.58556556  0.19350595  0.74221059  1
  C  C186  1  0.66185352  0.17532236  0.74727216  1
  H  H187  1  0.62864904  0.08094668  0.69644387  1
  C  C188  1  0.66387835  0.17963820  0.56472902  1
  N  N189  1  0.91034005  0.14080148  0.53111340  1
  H  H190  1  0.71984221  0.21475342  0.62570934  1
  N  N191  1  0.87707507  0.06237426  0.73991889  1
  C  C192  1  0.78979967  0.12218885  0.59859049  1
  C  C193  1  0.53058485  0.17526677  0.71927287  1
  C  C194  1  0.71189997  0.22193519  0.57093844  1
  N  N195  1  0.77747392  0.14895920  0.52268129  1
  N  N196  1  0.54567050  0.20102404  0.61235257  1
  N  N197  1  0.76811395  0.05783728  0.67905502  1
  H  H198  1  0.72838686  0.23179677  0.51730499  1
  C  C199  1  0.94009049  0.21318528  0.65096419  1
  C  C200  1  0.61901624  0.11486824  0.70928427  1
  H  H201  1  0.83862443  0.15155187  0.68141194  1
  N  N202  1  0.57903412  0.11219804  0.56681881  1
  C  C203  1  0.79342089  0.12030197  0.63343554  1
  C  C204  1  0.75503664  0.07651555  0.64804310  1
  C  C205  1  0.83977364  0.14777790  0.54235570  1
  C  C206  1  0.83392652  0.15547905  0.58145883  1
  C  C207  1  0.87274059  0.18415801  0.63458461  1
  C  C208  1  0.54830900  0.13566649  0.70255491  1
  N  N209  1  0.59951527  0.16568209  0.58083667  1
  H  H210  1  0.75523506  0.09793994  0.58309784  1
  N  N211  1  0.94744063  0.05542424  0.51123553  1
  N  N212  1  0.58993868  0.23008350  0.64712505  1
  N  N213  1  0.70912060  0.01334080  0.68390251  1
  N  N214  1  0.62370325  0.10332515  0.54362642  1
  N  N215  1  0.96728627  0.04524317  0.53922482  1
  N  N216  1  0.68253480  0.15132462  0.53906955  1
  N  N217  1  0.81054316  0.09096115  0.71422441  1
  C  C218  1  0.83152825  0.15327893  0.65333850  1
  H  H219  1  0.90812310  0.21536675  0.58715305  1
  C  C220  1  0.86948097  0.18971339  0.59938311  1
  C  C221  1  0.67768698  0.13721893  0.72823488  1
  C  C222  1  0.36178479  0.08759322  0.80876656  1
  N  N223  1  0.42139789  0.18116609  0.85736758  1
  C  C224  1  0.33579336  0.11402626  0.83657588  1
  C  C225  1  0.38543068  0.15119747  0.84720959  1
  C  C226  1  0.26212127  0.10137528  0.85316364  1
  H  H227  1  0.23783768  0.12547595  0.87026594  1
  C  C228  1  0.22585880  0.06186877  0.84684327  1
  N  N229  1  0.15732048  0.05132330  0.86765309  1
  C  C230  1  0.32305821  0.04722469  0.80187440  1
  C  C231  1  0.26013740  0.03281795  0.82162907  1
  N  N232  1  0.37051928  0.22007167  0.87977253  1
  N  N233  1  0.30214955  0.19315127  0.90413841  1
  H  H234  1  0.40863388  0.10027907  0.79140731  1
  H  H235  1  0.07866917  0.19246086  0.83151901  1
  N  N236  1  0.23603763  0.20520537  0.89718784  1
  N  N237  1  0.08654000  0.12292421  0.77490721  1
  C  C238  1  0.10777336  0.02886426  0.85017897  1
  C  C239  1  0.35719769  0.01732714  0.77163495  1
  C  C240  1  0.04604579  0.20481026  0.85445276  1
  N  N241  1  0.36068211  0.17667723  0.76704156  1
  Cu  Cu242  1  0.03793471  0.04017194  0.75613035  1
  N  N243  1  0.02732945  0.10136176  0.81102089  1
  N  N244  1  0.09476319  0.09574885  0.75229739  1
  N  N245  1  0.29029272  0.17628027  0.76044942  1
  N  N246  1  0.43102901  0.01477847  0.76180017  1
  C  C247  1  0.03050865  0.24817843  0.90310310  1
  C  C248  1  0.07420070  0.23901972  0.87342292  1
  N  N249  1  0.05934114  0.00883997  0.83575695  1
  N  N250  1  0.83728634  0.24755604  0.95486719  1
  C  C251  1  0.91563813  0.24347131  0.94666367  1
  C  C252  1  0.95759163  0.22962327  0.91214383  1
  C  C253  1  0.99628018  0.12470482  0.82973738  1
  N  N254  1  0.83766113  0.24708274  0.79828502  1
  N  N255  1  0.95068169  0.14175566  0.85152670  1
  N  N256  1  0.71071146  0.24581870  0.78572278  1
  C  C257  1  0.92696387  0.19662077  0.89128051  1
  Cu  Cu258  1  0.96785145  0.03950464  0.81386262  1
  C  C259  1  0.56276720  0.23635472  0.75915502  1
  H  H260  1  0.70354673  0.19010359  0.76506493  1
  N  N261  1  0.78777924  0.11174347  0.76663376  1
  H  H262  1  0.87379304  0.18018679  0.89561521  1
  N  N263  1  0.86989330  0.07720774  0.76833603  1
  C  C264  1  0.97605975  0.18193303  0.86478145  1
  N  N265  1  0.66897856  0.24115048  0.93936634  1
  C  C266  1  0.26412913  0.34112762  0.20634199  1
  H  H267  1  0.27805127  0.37546197  0.21475299  1
  N  N268  1  0.14714306  0.48309681  0.19232157  1
  C  C269  1  0.09078641  0.40577143  0.18974586  1
  C  C270  1  0.24581478  0.37056588  0.14399405  1
  N  N271  1  0.26410599  0.36706279  0.11066951  1
  N  N272  1  0.24336434  0.41599237  0.08977418  1
  N  N273  1  0.16101862  0.42726229  0.18450756  1
  N  N274  1  0.22520930  0.41366042  0.14864961  1
  C  C275  1  0.25083900  0.33559566  0.17148746  1
  C  C276  1  0.09053581  0.32289268  0.20571685  1
  N  N277  1  0.22346037  0.44273767  0.11135972  1
  N  N278  1  0.34948897  0.46458957  0.18880328  1
  H  H279  1  0.13078813  0.33070989  0.22573448  1
  H  H280  1  0.35468215  0.41641429  0.12145483  1
  N  N281  1  0.33115216  0.32898206  0.09317652  1
  C  C282  1  0.40535744  0.47427062  0.16720817  1
  C  C283  1  0.42572443  0.46144734  0.05653295  1
  C  C284  1  0.06554609  0.35694721  0.18378212  1
  C  C285  1  0.25831399  0.30233456  0.22718459  1
  C  C286  1  0.23268160  0.29396379  0.15635652  1
  N  N287  1  0.07689721  0.48724958  0.19915627  1
  C  C288  1  0.35620355  0.47609184  0.03795327  1
  C  C289  1  0.41565399  0.40743017  0.13008815  1
  C  C290  1  0.40901485  0.34198250  0.08977256  1
  C  C291  1  0.47227514  0.42460131  0.04715269  1
  H  H292  1  0.22970116  0.29087979  0.12855164  1
  C  C293  1  0.45877688  0.43493782  0.15248405  1
  C  C294  1  0.45706634  0.37101531  0.11572165  1
  N  N295  1  0.29546116  0.30775044  0.05555415  1
  N  N296  1  0.35517555  0.30159458  0.03854597  1
  C  C297  1  0.05881348  0.28022890  0.20308850  1
  H  H298  1  0.44662605  0.40294161  0.02699824  1
  N  N299  1  0.43459276  0.32405999  0.06094712  1
  N  N300  1  0.03846918  0.43590920  0.19933538  1
  C  C301  1  0.23220709  0.26168455  0.21226036  1
  N  N302  1  0.30283568  0.48751986  0.02200318  1
  C  C303  1  0.45721116  0.49016186  0.08337544  1
  N  N304  1  0.10115275  0.30470647  0.00764452  1
  C  C305  1  0.21113444  0.25917174  0.17779951  1
  C  C306  1  0.00794467  0.27174182  0.17609045  1
  C  C307  1  0.01012845  0.34920608  0.15880445  1
  C  C308  1  0.75732675  0.26120573  0.20605002  1
  N  N309  1  0.89433505  0.26842244  0.00601317  1
  C  C310  1  0.52986282  0.48188370  0.09667733  1
  C  C311  1  0.54702438  0.41635984  0.06099792  1
  N  N312  1  0.65327236  0.36518024  0.04068085  1
  N  N313  1  0.89752760  0.33065780  0.10631840  1
  N  N314  1  0.81683177  0.31313922  0.08338697  1
  N  N315  1  0.69375313  0.35726580  0.17724854  1
  N  N316  1  0.62589640  0.34271566  0.20654870  1
  C  C317  1  0.73643840  0.29035524  0.23017276  1
  C  C318  1  0.90413330  0.30352812  0.13344700  1
  N  N319  1  0.72305583  0.41238741  0.14379716  1
  N  N320  1  0.79256106  0.36982995  0.18593883  1
  N  N321  1  0.80650876  0.39742398  0.16410929  1
  H  H322  1  0.63369269  0.43918100  0.09883111  1
  C  C323  1  0.53678873  0.36131613  0.12144090  1
  C  C324  1  0.97692900  0.30698819  0.15683626  1
  C  C325  1  0.57898710  0.36985698  0.05010683  1
  C  C326  1  0.66651020  0.38630980  0.15365010  1
  C  C327  1  0.57752754  0.39148884  0.14280302  1
  H  H328  1  0.56772549  0.33334832  0.10736720  1
  N  N329  1  0.84208558  0.27360852  0.13128848  1
  N  N330  1  0.78485976  0.28272879  0.09818204  1
  N  N331  1  0.54141971  0.32992498  0.04761931  1
  C  C332  1  0.54024018  0.42804464  0.15813099  1
  H  H333  1  0.99157583  0.37654193  0.14382795  1
  N  N334  1  0.60169046  0.29561363  0.02734789  1
  H  H335  1  0.57273256  0.44717358  0.17717016  1
  C  C336  1  0.64762347  0.31221877  0.22848587  1
  N  N337  1  0.66431065  0.31512247  0.02288208  1
  C  C338  1  0.57586843  0.44422303  0.08616615  1
  C  C339  1  0.88727497  0.25685292  0.23423956  1
  H  H340  1  0.71846693  0.25570211  0.18355634  1
  N  N341  1  0.59370894  0.29528799  0.24911767  1
  N  N342  1  0.24529519  0.40142393  0.31988693  1
  N  N343  1  0.24224333  0.37589541  0.37651071  1
  C  C344  1  0.32181225  0.37238804  0.36894544  1
  H  H345  1  0.32970085  0.33958272  0.43562088  1
  N  N346  1  0.19705523  0.40163734  0.34343647  1
  C  C347  1  0.38786552  0.34157626  0.42418757  1
  C  C348  1  0.39411511  0.35578500  0.39044464  1
  N  N349  1  0.32943232  0.38025805  0.33611066  1
  N  N350  1  0.20413295  0.34713624  0.44809704  1
  N  N351  1  0.18152912  0.42409329  0.46449146  1
  Cu  Cu352  1  0.05986365  0.34126070  0.36574265  1
  N  N353  1  0.20641263  0.31490603  0.28453652  1
  Cu  Cu354  1  0.19627180  0.32648807  0.32972518  1
  Cu  Cu355  1  0.41696374  0.45012882  0.31044632  1
  N  N356  1  0.34041785  0.29316880  0.27557221  1
  N  N357  1  0.21317362  0.38867863  0.41796570  1
  C  C358  1  0.19521133  0.42907716  0.43122393  1
  H  H359  1  0.25968027  0.44492465  0.37332922  1
  C  C360  1  0.19135177  0.47429971  0.41414264  1
  C  C361  1  0.23207326  0.47599889  0.38334282  1
  Cu  Cu362  1  0.11185128  0.48532494  0.32597645  1
  C  C363  1  0.26463995  0.30207057  0.26547886  1
  N  N364  1  0.18854062  0.36728691  0.47404894  1
  Cu  Cu365  1  0.09819891  0.32166710  0.27824228  1
  N  N366  1  0.06493075  0.36180494  0.31802986  1
  N  N367  1  0.04161461  0.39825362  0.31042952  1
  N  N368  1  0.10244616  0.44678080  0.48545611  1
  N  N369  1  0.35048671  0.27719711  0.30669073  1
  C  C370  1  0.42737766  0.26672767  0.31550107  1
  N  N371  1  0.08493191  0.27915214  0.35969207  1
  N  N372  1  0.43541872  0.47093405  0.38300395  1
  N  N373  1  0.37853331  0.27829713  0.48671205  1
  C  C374  1  0.46773037  0.35167936  0.37319655  1
  H  H375  1  0.47724173  0.36290603  0.34837519  1
  C  C376  1  0.45614101  0.32487046  0.44162782  1
  C  C377  1  0.44541321  0.29799930  0.47603616  1
  N  N378  1  0.14651831  0.27368483  0.34511606  1
  N  N379  1  0.01903342  0.46687566  0.35122840  1
  N  N380  1  0.46481544  0.40581169  0.28273174  1
  N  N381  1  0.08578138  0.26137231  0.26378978  1
  N  N382  1  0.30232402  0.25694036  0.45700985  1
  N  N383  1  0.48528023  0.27448795  0.29563724  1
  N  N384  1  0.48433376  0.45050929  0.34483671  1
  H  H385  1  0.48747010  0.41143095  0.41367155  1
  N  N386  1  0.21466001  0.49722909  0.31181667  1
  Cu  Cu387  1  0.49128738  0.31018675  0.25784063  1
  Cu  Cu388  1  0.02275952  0.32829723  0.46206835  1
  N  N389  1  0.49901996  0.47118898  0.49936949  1
  N  N390  1  0.01744464  0.33494605  0.41427159  1
  N  N391  1  0.00339378  0.43943047  0.47129433  1
  N  N392  1  0.28384479  0.49907846  0.25410196  1
  C  C393  1  0.77311876  0.49088724  0.49260372  1
  H  H394  1  0.69161752  0.46688344  0.36341659  1
  N  N395  1  0.50828230  0.29270435  0.49573422  1
  H  H396  1  0.76019760  0.32688412  0.27755538  1
  Cu  Cu397  1  0.91696921  0.32828783  0.36106793  1
  C  C398  1  0.54778760  0.42633558  0.41590888  1
  C  C399  1  0.53229694  0.33335518  0.39078799  1
  N  N400  1  0.99185413  0.43105383  0.34418900  1
  N  N401  1  0.51042656  0.40108783  0.48962894  1
  N  N402  1  0.73307917  0.35795013  0.45849378  1
  C  C403  1  0.64910068  0.47285216  0.44756897  1
  N  N404  1  0.86274508  0.31909044  0.49904075  1
  C  C405  1  0.90374133  0.28154135  0.29552657  1
  C  C406  1  0.66141372  0.46130534  0.38689176  1
  Cu  Cu407  1  0.88462808  0.32684486  0.45286401  1
  C  C408  1  0.85597968  0.28197989  0.26138464  1
  N  N409  1  0.74229284  0.30570556  0.34832328  1
  N  N410  1  0.72381795  0.31902990  0.49425911  1
  N  N411  1  0.72727934  0.34052150  0.33374221  1
  N  N412  1  0.63838145  0.35931527  0.34951220  1
  H  H413  1  0.66567195  0.48673972  0.47301630  1
  C  C414  1  0.61021553  0.32827784  0.37036181  1
  N  N415  1  0.52556198  0.38867640  0.29227203  1
  C  C416  1  0.52797087  0.31990116  0.42556351  1
  N  N417  1  0.58015186  0.40289904  0.33051993  1
  N  N418  1  0.94634110  0.33334784  0.40880272  1
  N  N419  1  0.79348958  0.36265948  0.44260707  1
  C  C420  1  0.55221659  0.43170546  0.35100960  1
  H  H421  1  0.56925935  0.25327008  0.35279548  1
  Cu  Cu422  1  0.59000540  0.25978641  0.28684997  1
  H  H423  1  0.58167981  0.30296646  0.43553397  1
  N  N424  1  0.89394590  0.31352565  0.31793679  1
  C  C425  1  0.78134830  0.30318726  0.25894023  1
  N  N426  1  0.66455295  0.29667204  0.37310721  1
  N  N427  1  0.66886379  0.25557072  0.40809568  1
  C  C428  1  0.58868025  0.43844684  0.38655097  1
  C  C429  1  0.53309419  0.44052434  0.47820879  1
  C  C430  1  0.58280280  0.44613080  0.44497525  1
  C  C431  1  0.69315769  0.47764647  0.41742116  1
  N  N432  1  0.96332637  0.44942141  0.49551379  1
  C  C433  1  0.27783874  0.34879028  0.67439815  1
  C  C434  1  0.21041425  0.35686514  0.64904090  1
  C  C435  1  0.35131023  0.36969073  0.67131280  1
  C  C436  1  0.34341225  0.37729207  0.57513862  1
  N  N437  1  0.31455255  0.34390253  0.59377034  1
  H  H438  1  0.36562102  0.39507624  0.65339379  1
  N  N439  1  0.41609929  0.36919039  0.56370465  1
  C  C440  1  0.22058649  0.41637496  0.54968716  1
  C  C441  1  0.29384737  0.42014471  0.56677909  1
  C  C442  1  0.41333589  0.34796635  0.68901357  1
  C  C443  1  0.27178709  0.30963892  0.69493487  1
  H  H444  1  0.21263801  0.29378877  0.69330955  1
  C  C445  1  0.33444900  0.29055328  0.71272536  1
  N  N446  1  0.22062664  0.35820889  0.61699486  1
  N  N447  1  0.13268186  0.36175997  0.65655071  1
  N  N448  1  0.39704225  0.30577571  0.60664622  1
  N  N449  1  0.37781707  0.27796544  0.62672333  1
  N  N450  1  0.10797841  0.39881678  0.68975486  1
  N  N451  1  0.13317230  0.37010864  0.59506358  1
  N  N452  1  0.11434934  0.38473202  0.71817475  1
  N  N453  1  0.08521736  0.37400362  0.61758147  1
  H  H454  1  0.19926289  0.38297160  0.54216213  1
  C  C455  1  0.17653764  0.45564753  0.54190006  1
  C  C456  1  0.31900888  0.46248744  0.57841233  1
  C  C457  1  0.10347246  0.45522077  0.51818508  1
  C  C458  1  0.40939969  0.31074221  0.71073281  1
  N  N459  1  0.03007042  0.46232342  0.52949512  1
  H  H460  1  0.37871513  0.46353947  0.59034699  1
  N  N461  1  0.46010384  0.45256254  0.53322595  1
  N  N462  1  0.45395486  0.41144877  0.53034864  1
  H  H463  1  0.24369334  0.44854466  0.70543747  1
  H  H464  1  0.45965093  0.29820761  0.72508552  1
  N  N465  1  0.38301657  0.44993154  0.72648773  1
  N  N466  1  0.38420982  0.46614021  0.67862868  1
  C  C467  1  0.21688056  0.47894553  0.69503648  1
  N  N468  1  0.01974858  0.27307276  0.67925702  1
  N  N469  1  0.07849958  0.48936090  0.60964142  1
  N  N470  1  0.04090604  0.48867101  0.63603048  1
  N  N471  1  0.47786916  0.46272017  0.65903931  1
  C  C472  1  0.11713700  0.47058590  0.74041385  1
  N  N473  1  0.47875293  0.25431190  0.52546379  1
  Cu  Cu474  1  0.48064930  0.32117286  0.56551611  1
  C  C475  1  0.20073515  0.49771672  0.55322541  1
  C  C476  1  0.14858687  0.49640945  0.70926470  1
  C  C477  1  0.27350903  0.49973991  0.57024996  1
  N  N478  1  0.47607944  0.48790724  0.63492694  1
  C  C479  1  0.34044728  0.49632047  0.66162124  1
  N  N480  1  0.01727084  0.46980381  0.57675591  1
  N  N481  1  0.08969294  0.42912678  0.74366534  1
  C  C482  1  0.49778045  0.36781033  0.68781337  1
  N  N483  1  0.01398177  0.31908010  0.50930727  1
  N  N484  1  0.06907206  0.25831734  0.59231250  1
  Cu  Cu485  1  0.43602454  0.39258356  0.74617599  1
  N  N486  1  0.37740842  0.47805536  0.74762495  1
  N  N487  1  0.73493060  0.32347132  0.65755021  1
  H  H488  1  0.87456335  0.47753318  0.52629070  1
  N  N489  1  0.64250018  0.34630403  0.56351162  1
  C  C490  1  0.75671727  0.45239454  0.53679647  1
  N  N491  1  0.53822339  0.25259791  0.65976656  1
  Cu  Cu492  1  0.61773242  0.31001161  0.50073839  1
  C  C493  1  0.70519421  0.43118038  0.56191540  1
  N  N494  1  0.64997104  0.46283217  0.72539225  1
  H  H495  1  0.84687179  0.41158919  0.62279045  1
  N  N496  1  0.53027091  0.35810697  0.66306413  1
  N  N497  1  0.82145101  0.31758394  0.70542305  1
  C  C498  1  0.78934898  0.31156084  0.51256082  1
  C  C499  1  0.77556861  0.28511069  0.54534951  1
  N  N500  1  0.94724599  0.47139863  0.62543115  1
  N  N501  1  0.52591518  0.39000460  0.71882763  1
  N  N502  1  0.72134456  0.46850721  0.50794645  1
  N  N503  1  0.75947323  0.33657459  0.69867337  1
  H  H504  1  0.64263701  0.42751037  0.55607963  1
  N  N505  1  0.67297048  0.40325544  0.64292769  1
  C  C506  1  0.67365175  0.39264542  0.61506901  1
  C  C507  1  0.78331383  0.29279376  0.64621394  1
  C  C508  1  0.82045907  0.42060774  0.59846156  1
  N  N509  1  0.92833708  0.25164913  0.66779883  1
  C  C510  1  0.86439519  0.44599213  0.57619169  1
  H  H511  1  0.81766811  0.33479309  0.58252269  1
  N  N512  1  0.95218085  0.31239883  0.52304951  1
  N  N513  1  0.83511164  0.28268332  0.67151707  1
  C  C514  1  0.94468590  0.46317428  0.59203186  1
  N  N515  1  0.62090914  0.36542010  0.60191694  1
  C  C516  1  0.77054282  0.27764971  0.60710766  1
  C  C517  1  0.83645670  0.46001306  0.54457360  1
  Cu  Cu518  1  0.53562965  0.33485664  0.61865071  1
  Cu  Cu519  1  0.54133664  0.45258311  0.71645335  1
  N  N520  1  0.59038739  0.32807052  0.54771178  1
  Cu  Cu521  1  0.61650433  0.39683886  0.68211846  1
  C  C522  1  0.73884261  0.41490024  0.59044721  1
  C  C523  1  0.79268868  0.30192511  0.57820048  1
  Cu  Cu524  1  0.60270108  0.36367972  0.74478757  1
  C  C525  1  0.28738807  0.34416806  0.83885108  1
  C  C526  1  0.30455163  0.34158890  0.87745029  1
  C  C527  1  0.38487855  0.34117944  0.88757520  1
  C  C528  1  0.24149362  0.33657352  0.90006549  1
  C  C529  1  0.39776221  0.33474278  0.92218822  1
  N  N530  1  0.33370748  0.36584236  0.81784119  1
  H  H531  1  0.17707835  0.33626323  0.89478667  1
  N  N532  1  0.09187210  0.38277419  0.93094564  1
  N  N533  1  0.23016021  0.32256632  0.82149674  1
  N  N534  1  0.14426864  0.29718799  0.83935147  1
  N  N535  1  0.11232074  0.33164474  0.95244227  1
  C  C536  1  0.18924927  0.31878044  0.95835272  1
  C  C537  1  0.33819281  0.32726860  0.94534460  1
  C  C538  1  0.25991728  0.32545117  0.93344399  1
  H  H539  1  0.34951277  0.31979923  0.97267398  1
  N  N540  1  0.06400828  0.41965014  0.78627166  1
  N  N541  1  0.24425302  0.33573511  0.77981149  1
  N  N542  1  0.05597895  0.29735352  0.81101897  1
  H  H543  1  0.43396216  0.34790115  0.86981570  1
  N  N544  1  0.13237232  0.42505565  0.95374656  1
  N  N545  1  0.30246180  0.36004365  0.77951086  1
  N  N546  1  0.07586400  0.45440661  0.80098772  1
  C  C547  1  0.48640304  0.33023243  0.93516367  1
  C  C548  1  0.15215890  0.26290049  0.86007508  1
  H  H549  1  0.05595770  0.26885634  0.92280723  1
  Cu  Cu550  1  0.39206201  0.46242808  0.79420683  1
  Cu  Cu551  1  0.32448657  0.26368989  0.85453758  1
  N  N552  1  0.41151833  0.46948724  0.95002589  1
  N  N553  1  0.44180736  0.46657782  0.90850786  1
  N  N554  1  0.08118910  0.45365333  0.95143804  1
  H  H555  1  0.04802631  0.35671426  0.86342123  1
  N  N556  1  0.47798891  0.42419799  0.78304197  1
  N  N557  1  0.06640963  0.26726324  0.77463991  1
  N  N558  1  0.19377572  0.30166363  0.98795441  1
  N  N559  1  0.22613440  0.25082363  0.86890450  1
  N  N560  1  0.11655855  0.49109304  0.76972156  1
  N  N561  1  0.05673495  0.32187799  0.98753238  1
  H  H562  1  0.49371116  0.43788692  0.85205514  1
  Cu  Cu563  1  0.43207110  0.25610438  0.90340591  1
  C  C564  1  0.01686746  0.39341755  0.91992309  1
  N  N565  1  0.00072767  0.25168451  0.76888974  1
  C  C566  1  0.49865467  0.49633461  0.90265714  1
  N  N567  1  0.48874085  0.25402138  0.75776208  1
  N  N568  1  0.48867298  0.29823210  0.78730060  1
  N  N569  1  0.00014536  0.43428567  0.92785921  1
  N  N570  1  0.76210366  0.25418667  0.92528467  1
  N  N571  1  0.62294283  0.48443503  0.99173594  1
  N  N572  1  0.78413277  0.49414049  0.92057137  1
  N  N573  1  0.63834776  0.42492803  0.95451521  1
  C  C574  1  0.86069141  0.46788844  0.79728037  1
  N  N575  1  0.78742077  0.47095540  0.88292260  1
  N  N576  1  0.84675927  0.44790695  0.88039099  1
  N  N577  1  0.82617476  0.26404767  0.99579983  1
  N  N578  1  0.50280800  0.28873544  0.92827703  1
  N  N579  1  0.95617561  0.25242652  0.97371992  1
  Cu  Cu580  1  0.52717302  0.42421124  0.94759151  1
  C  C581  1  0.77172639  0.27124339  0.79470204  1
  C  C582  1  0.81765786  0.39860531  0.80201998  1
  N  N583  1  0.89618560  0.45826805  0.91654860  1
  C  C584  1  0.98897520  0.34857851  0.87155167  1
  N  N585  1  0.66432098  0.45263010  0.98935163  1
  H  H586  1  0.83335151  0.27659797  0.85217519  1
  N  N587  1  0.94003513  0.27133930  0.79906145  1
  C  C588  1  0.70631889  0.37884811  0.83669769  1
  C  C589  1  0.70941002  0.33341949  0.82429737  1
  C  C590  1  0.55399024  0.43387840  0.78766172  1
  Cu  Cu591  1  0.65361994  0.45283551  0.91326406  1
  N  N592  1  0.61700750  0.41261449  0.77331350  1
  N  N593  1  0.61309412  0.41084679  0.88218784  1
  C  C594  1  0.95780713  0.36046290  0.90274559  1
  C  C595  1  0.84041336  0.31798221  0.89681874  1
  H  H596  1  0.74964377  0.44647897  0.82866861  1
  H  H597  1  0.87645292  0.34120433  0.77729185  1
  C  C598  1  0.88329011  0.34772015  0.91715569  1
  Cu  Cu599  1  0.63078506  0.36590417  0.96216845  1
  C  C600  1  0.56631631  0.47184936  0.81304948  1
  C  C601  1  0.76846132  0.32273659  0.80201609  1
  N  N602  1  0.61228384  0.26772469  0.77385031  1
  C  C603  1  0.76175268  0.29336362  0.90855072  1
  C  C604  1  0.97798021  0.29367624  0.82337766  1
  N  N605  1  0.68787995  0.30523096  0.90395957  1
  C  C606  1  0.52830720  0.46745042  0.84473480  1
  N  N607  1  0.55553699  0.30443935  0.79726009  1
  H  H608  1  0.86407465  0.35743248  0.94213406  1
  N  N609  1  0.62445792  0.27018840  0.92882985  1
  C  C610  1  0.86964996  0.30088446  0.86568191  1
  C  C611  1  0.82635636  0.35356651  0.79205237  1
  C  C612  1  0.65485162  0.39740210  0.86215536  1
  C  C613  1  0.75377651  0.41160661  0.82317314  1
  N  N614  1  0.87419971  0.42702937  0.79196484  1
  C  C615  1  0.94444685  0.31468364  0.85504653  1
  H  H616  1  0.67118646  0.30687439  0.83185704  1
  N  N617  1  0.52816372  0.36271940  0.94772640  1
  C  C618  1  0.84989790  0.48746994  0.93573763  1
  N  N619  1  0.68015314  0.44647316  0.75019000  1
  C  C620  1  0.11037609  0.66319572  0.21669157  1
  N  N621  1  0.21823719  0.61430388  0.12984573  1
  N  N622  1  0.27885558  0.61015584  0.14581155  1
  N  N623  1  0.35378846  0.65499984  0.14661181  1
  N  N624  1  0.28655571  0.57963957  0.04086888  1
  Cu  Cu625  1  0.34678352  0.55950324  0.17690079  1
  H  H626  1  0.30482574  0.65600306  0.07495378  1
  C  C627  1  0.35086145  0.59516270  0.02588558  1
  N  N628  1  0.40330449  0.61002091  0.18536197  1
  C  C629  1  0.36417777  0.66339400  0.06544103  1
  C  C630  1  0.13318045  0.67062555  0.18384531  1
  C  C631  1  0.06986907  0.66886744  0.15935571  1
  C  C632  1  0.10359302  0.68267043  0.12523711  1
  C  C633  1  0.40129093  0.70183820  0.07802624  1
  N  N634  1  0.33697364  0.71165385  0.13446793  1
  C  C635  1  0.34932173  0.72714908  0.10367518  1
  C  C636  1  0.40854957  0.64797345  0.17038053  1
  C  C637  1  0.40004746  0.63674787  0.04077034  1
  H  H638  1  0.19453124  0.67647693  0.17413328  1
  N  N639  1  0.17965491  0.68549073  0.07042399  1
  N  N640  1  0.17024762  0.66633668  0.11273488  1
  N  N641  1  0.12331335  0.70931990  0.06342357  1
  C  C642  1  0.46519509  0.68588074  0.17841254  1
  N  N643  1  0.24737588  0.67720432  0.23137907  1
  N  N644  1  0.07129431  0.70934245  0.10061125  1
  C  C645  1  0.47595906  0.64623716  0.02888349  1
  N  N646  1  0.46608121  0.60266157  0.22023803  1
  C  C647  1  0.03183077  0.65693632  0.22689893  1
  C  C648  1  0.47187199  0.71604032  0.06230895  1
  H  H649  1  0.47435585  0.69999665  0.12338477  1
  C  C650  1  0.17772047  0.66458676  0.24416790  1
  N  N651  1  0.45340144  0.56903625  0.23591955  1
  H  H652  1  0.47989505  0.67596159  0.23282634  1
  Cu  Cu653  1  0.22256429  0.53116223  0.03399057  1
  N  N654  1  0.10652996  0.55760966  0.08934049  1
  H  H655  1  0.42452949  0.51934371  0.08995196  1
  N  N656  1  0.41729736  0.51604385  0.16156125  1
  N  N657  1  0.10976284  0.51734741  0.08989237  1
  N  N658  1  0.03634885  0.57346817  0.05973060  1
  C  C659  1  0.49411123  0.70724018  0.14928257  1
  H  H660  1  0.49831801  0.74817154  0.07047450  1
  N  N661  1  0.27257595  0.74360968  0.15555234  1
  Cu  Cu662  1  0.27484864  0.50079461  0.20631085  1
  N  N663  1  0.01692492  0.62717835  0.04021438  1
  C  C664  1  0.00410633  0.53681585  0.04640120  1
  N  N665  1  0.03930520  0.50258932  0.05999553  1
  C  C666  1  0.50156887  0.69350352  0.21038016  1
  N  N667  1  0.51879741  0.53527638  0.15020053  1
  C  C668  1  0.99056315  0.66774622  0.16748719  1
  H  H669  1  0.50883060  0.62388420  0.01440016  1
  N  N670  1  0.63880771  0.52887539  0.02319092  1
  C  C671  1  0.56070078  0.51280105  0.12625804  1
  N  N672  1  0.55933956  0.55488374  0.04451087  1
  C  C673  1  0.97308825  0.65878952  0.20182351  1
  N  N674  1  0.92719786  0.71998268  0.09502709  1
  N  N675  1  0.77101936  0.59295448  0.08524571  1
  C  C676  1  0.51299465  0.68846839  0.03811097  1
  N  N677  1  0.69281867  0.57791642  0.05490588  1
  N  N678  1  0.63701380  0.52009607  0.12948210  1
  C  C679  1  0.56212488  0.73288100  0.15418595  1
  C  C680  1  0.88545489  0.65548500  0.21327226  1
  C  C681  1  0.70738715  0.54611575  0.03285102  1
  N  N682  1  0.73659849  0.64735692  0.21269302  1
  N  N683  1  0.65871686  0.70124429  0.01939678  1
  N  N684  1  0.58849760  0.55797139  0.17686358  1
  Cu  Cu685  1  0.70449058  0.68567849  0.09279563  1
  H  H686  1  0.94026938  0.66901188  0.14841107  1
  N  N687  1  0.58984038  0.58356286  0.06175193  1
  C  C688  1  0.59509223  0.69585885  0.02844777  1
  C  C689  1  0.93231264  0.52914216  0.02125748  1
  Cu  Cu690  1  0.79596666  0.66061117  0.04119857  1
  N  N691  1  0.98481811  0.74170372  0.10255002  1
  C  C692  1  0.78986493  0.53099131  0.02134268  1
  N  N693  1  0.64322351  0.73928773  0.10284260  1
  N  N694  1  0.73187281  0.70863446  0.05034079  1
  Cu  Cu695  1  0.82350694  0.74465192  0.03744862  1
  C  C696  1  0.56311559  0.72415191  0.21287964  1
  N  N697  1  0.95385981  0.62791131  0.02628281  1
  N  N698  1  0.65338912  0.55008875  0.16538700  1
  C  C699  1  0.86115440  0.53757238  0.03851598  1
  N  N700  1  0.80174334  0.62879023  0.08418461  1
  H  H701  1  0.85362293  0.55147208  0.06372738  1
  N  N702  1  0.82887236  0.63605468  0.19425037  1
  C  C703  1  0.59923464  0.74343033  0.18443730  1
  N  N704  1  0.75125155  0.67147387  0.23615958  1
  N  N705  1  0.85043089  0.67462812  0.24121902  1
  H  H706  1  0.93560966  0.74828661  0.15678992  1
  C  C707  1  0.59499949  0.73750926  0.24812571  1
  N  N708  1  0.93317166  0.67785088  0.00261630  1
  N  N709  1  0.07040337  0.60583351  0.34823337  1
  C  C710  1  0.10434304  0.59448463  0.41539232  1
  H  H711  1  0.20790184  0.58721005  0.36549333  1
  H  H712  1  0.23623700  0.61582951  0.43343332  1
  C  C713  1  0.28437042  0.60101420  0.44874049  1
  C  C714  1  0.15233401  0.55226382  0.40768556  1
  C  C715  1  0.19938203  0.55547115  0.37796203  1
  C  C716  1  0.35910378  0.59590649  0.43482612  1
  C  C717  1  0.36859497  0.61194747  0.39538191  1
  C  C718  1  0.10086447  0.63547127  0.32842352  1
  C  C719  1  0.13329760  0.67975222  0.34425113  1
  C  C720  1  0.42457203  0.57997314  0.45252524  1
  N  N721  1  0.11356857  0.62662553  0.29697473  1
  C  C722  1  0.21234769  0.69253815  0.34243276  1
  N  N723  1  0.31386519  0.63082768  0.37575532  1
  N  N724  1  0.08559208  0.61023203  0.44645735  1
  H  H725  1  0.25654777  0.66996269  0.33095394  1
  C  C726  1  0.07202229  0.71105446  0.35220006  1
  N  N727  1  0.07473916  0.62083860  0.39135298  1
  N  N728  1  0.18937506  0.65452371  0.27796113  1
  Cu  Cu729  1  0.42964516  0.54429192  0.34712407  1
  N  N730  1  0.35373212  0.63382699  0.33523224  1
  N  N731  1  0.29883395  0.65382486  0.28573293  1
  N  N732  1  0.07508878  0.57455251  0.28098746  1
  C  C733  1  0.23341154  0.73394825  0.35883719  1
  Cu  Cu734  1  0.03422013  0.54948099  0.34375284  1
  N  N735  1  0.12174983  0.58882889  0.48919191  1
  C  C736  1  0.27225151  0.58719725  0.48267091  1
  C  C737  1  0.41451280  0.56711261  0.48641941  1
  N  N738  1  0.43729460  0.61092932  0.37882886  1
  N  N739  1  0.42386009  0.62529823  0.33871465  1
  N  N740  1  0.34665838  0.52171408  0.32347473  1
  N  N741  1  0.30726804  0.73742712  0.42578932  1
  N  N742  1  0.04594560  0.54460679  0.29686980  1
  N  N743  1  0.32638768  0.66462088  0.25886416  1
  Cu  Cu744  1  0.38883396  0.52022331  0.27976099  1
  C  C745  1  0.23407101  0.51602003  0.36702292  1
  N  N746  1  0.45842757  0.74682692  0.39265716  1
  C  C747  1  0.27270854  0.51125562  0.33044115  1
  H  H748  1  0.48269176  0.57623232  0.44114577  1
  N  N749  1  0.41268774  0.50890844  0.38570406  1
  C  C750  1  0.15545935  0.51336124  0.42798391  1
  N  N751  1  0.01089647  0.74080454  0.27995283  1
  N  N752  1  0.03539002  0.65879650  0.44220706  1
  N  N753  1  0.02357841  0.66533756  0.41242081  1
  H  H754  1  0.12416062  0.51043245  0.45159377  1
  Cu  Cu755  1  0.21234791  0.74817979  0.47701182  1
  C  C756  1  0.09111489  0.74944798  0.36970546  1
  H  H757  1  0.02135890  0.65175339  0.25396086  1
  N  N758  1  0.48896060  0.54559353  0.29364484  1
  H  H759  1  0.01072528  0.70324085  0.34758215  1
  C  C760  1  0.32137847  0.74836369  0.35892293  1
  N  N761  1  0.22025332  0.50380798  0.26788158  1
  N  N762  1  0.96064030  0.71279011  0.28526532  1
  N  N763  1  0.72153866  0.73616799  0.37670281  1
  N  N764  1  0.88653184  0.72392693  0.25685781  1
  C  C765  1  0.73708841  0.66827021  0.46625991  1
  C  C766  1  0.79215715  0.64660376  0.48564428  1
  N  N767  1  0.62183337  0.63327998  0.37890845  1
  N  N768  1  0.89543684  0.55374121  0.42280898  1
  C  C769  1  0.72994891  0.71491757  0.46644219  1
  N  N770  1  0.51805171  0.56746293  0.27190341  1
  N  N771  1  0.65160449  0.60988996  0.43497652  1
  N  N772  1  0.82499948  0.51078534  0.48127950  1
  N  N773  1  0.80433275  0.51631614  0.38681497  1
  N  N774  1  0.58285842  0.71787573  0.27620611  1
  H  H775  1  0.68813961  0.73282505  0.45023615  1
  N  N776  1  0.60577006  0.60202663  0.39669713  1
  N  N777  1  0.89212899  0.54414717  0.39320910  1
  C  C778  1  0.68633264  0.64912134  0.43672091  1
  H  H779  1  0.80511697  0.61123718  0.48178832  1
  N  N780  1  0.67068636  0.67042353  0.40719656  1
  C  C781  1  0.77047589  0.50655785  0.41615138  1
  Cu  Cu782  1  0.61231470  0.74512852  0.37424297  1
  N  N783  1  0.74520057  0.70387377  0.39141792  1
  N  N784  1  0.81221229  0.52986861  0.44021496  1
  C  C785  1  0.78183425  0.74010742  0.48648043  1
  N  N786  1  0.35615167  0.60672174  0.61213864  1
  N  N787  1  0.35574315  0.55240673  0.60224084  1
  C  C788  1  0.29885284  0.54656937  0.57999545  1
  C  C789  1  0.21147148  0.54311775  0.65650792  1
  H  H790  1  0.23663359  0.56084143  0.63463901  1
  C  C791  1  0.13982575  0.55688975  0.67292424  1
  H  H792  1  0.42535353  0.66988952  0.61135408  1
  N  N793  1  0.27226851  0.58512579  0.56904521  1
  N  N794  1  0.31513730  0.62494176  0.59090337  1
  C  C795  1  0.11244354  0.53601919  0.70107068  1
  N  N796  1  0.37328624  0.65683687  0.70533764  1
  H  H797  1  0.33133455  0.56351357  0.52717198  1
  N  N798  1  0.31305306  0.65328520  0.68913953  1
  C  C799  1  0.41933824  0.70176003  0.60032824  1
  N  N800  1  0.18617723  0.59278060  0.53588311  1
  N  N801  1  0.09084023  0.60786534  0.62456285  1
  C  C802  1  0.08343281  0.59515780  0.65647552  1
  H  H803  1  0.15981035  0.52612834  0.54927517  1
  N  N804  1  0.08874784  0.59652056  0.54779270  1
  H  H805  1  0.06092918  0.55026705  0.71274296  1
  Cu  Cu806  1  0.04156338  0.64491706  0.59695341  1
  N  N807  1  0.28395575  0.70574089  0.67667391  1
  N  N808  1  0.05300484  0.59469314  0.52094162  1
  N  N809  1  0.20785131  0.71859104  0.58400870  1
  Cu  Cu810  1  0.08253796  0.70633723  0.54448659  1
  N  N811  1  0.12745813  0.70856010  0.63377115  1
  N  N812  1  0.11237293  0.71074759  0.60387908  1
  C  C813  1  0.26167129  0.71921095  0.60882803  1
  N  N814  1  0.39014304  0.71300262  0.70790683  1
  N  N815  1  0.22829252  0.71523119  0.63847891  1
  N  N816  1  0.38107919  0.51033307  0.63559799  1
  N  N817  1  0.17531307  0.73208246  0.52469727  1
  C  C818  1  0.25245503  0.50597059  0.67072872  1
  N  N819  1  0.23009476  0.73395153  0.54441237  1
  C  C820  1  0.34000815  0.73494382  0.68729801  1
  C  C821  1  0.48950302  0.72084885  0.58610092  1
  C  C822  1  0.35072660  0.72758925  0.60032472  1
  C  C823  1  0.48693214  0.55677052  0.50990129  1
  N  N824  1  0.02735329  0.61452597  0.67336180  1
  C  C825  1  0.00380512  0.73923794  0.74665657  1
  C  C826  1  0.19412049  0.58785973  0.50260986  1
  C  C827  1  0.33827272  0.57061355  0.50046206  1
  N  N828  1  0.14084959  0.70966869  0.74837222  1
  N  N829  1  0.50227339  0.57602964  0.53879159  1
  Cu  Cu830  1  0.99460433  0.73590405  0.59183611  1
  N  N831  1  0.54231240  0.52381466  0.50417029  1
  N  N832  1  0.72907849  0.74327639  0.64877476  1
  C  C833  1  0.72981252  0.74458239  0.68224116  1
  H  H834  1  0.86632213  0.70033504  0.71192705  1
  C  C835  1  0.86295052  0.73529857  0.71799487  1
  C  C836  1  0.56321091  0.69226617  0.57313482  1
  N  N837  1  0.77499677  0.65342128  0.72735272  1
  N  N838  1  0.88345360  0.64388942  0.52845948  1
  N  N839  1  0.57078360  0.67914779  0.54171873  1
  C  C840  1  0.93515482  0.66424803  0.54576486  1
  N  N841  1  0.60670081  0.52307519  0.53747780  1
  N  N842  1  0.66545058  0.72387641  0.69521431  1
  N  N843  1  0.96161165  0.65197603  0.65820297  1
  N  N844  1  0.98345533  0.68295786  0.56196550  1
  N  N845  1  0.69559794  0.69010711  0.73199908  1
  N  N846  1  0.96883573  0.66667411  0.63012046  1
  C  C847  1  0.83829005  0.67175393  0.50797416  1
  N  N848  1  0.64617788  0.70225075  0.63921757  1
  N  N849  1  0.58667620  0.55111145  0.55808954  1
  N  N850  1  0.69148425  0.65263376  0.56576973  1
  N  N851  1  0.62821465  0.68062899  0.59124389  1
  H  H852  1  0.86694601  0.73801905  0.52619101  1
  C  C853  1  0.83084717  0.71845800  0.50952402  1
  N  N854  1  0.61732704  0.69320392  0.66670358  1
  N  N855  1  0.66258237  0.65208619  0.53757003  1
  N  N856  1  0.81687923  0.74074447  0.62960984  1
  N  N857  1  0.33480064  0.62857150  0.81470531  1
  C  C858  1  0.40597470  0.62870099  0.80038033  1
  N  N859  1  0.30632405  0.68280659  0.82813938  1
  N  N860  1  0.23952745  0.68597657  0.83875955  1
  Cu  Cu861  1  0.25964701  0.58574915  0.83336992  1
  N  N862  1  0.19007524  0.63639890  0.84010011  1
  N  N863  1  0.12096511  0.64039304  0.87285452  1
  N  N864  1  0.33811356  0.53592780  0.82146585  1
  Cu  Cu865  1  0.13478428  0.62651183  0.80057724  1
  N  N866  1  0.15163911  0.56380014  0.79610270  1
  N  N867  1  0.44953038  0.59262933  0.80090791  1
  Cu  Cu868  1  0.45163063  0.53417285  0.81501409  1
  C  C869  1  0.09595107  0.67561331  0.87583970  1
  N  N870  1  0.15777305  0.54647715  0.88412930  1
  C  C871  1  0.44351336  0.67560721  0.78926318  1
  C  C872  1  0.16813156  0.63095331  0.97368497  1
  C  C873  1  0.19002947  0.58548801  0.98045187  1
  Cu  Cu874  1  0.09279213  0.57406098  0.85021545  1
  C  C875  1  0.22558315  0.66029873  0.95860428  1
  H  H876  1  0.28436978  0.64646618  0.95248113  1
  C  C877  1  0.20697263  0.70492003  0.95491317  1
  C  C878  1  0.13153629  0.72125426  0.96336370  1
  N  N879  1  0.10644566  0.54900930  0.77552980  1
  C  C880  1  0.07006617  0.69058623  0.97443377  1
  C  C881  1  0.08841180  0.64635185  0.98029348  1
  C  C882  1  0.07230638  0.72274067  0.87602137  1
  N  N883  1  0.10546379  0.68629841  0.76901395  1
  Cu  Cu884  1  0.31817520  0.52626393  0.98052977  1
  C  C885  1  0.41893405  0.72059521  0.79046833  1
  H  H886  1  0.36161197  0.73148464  0.80105949  1
  N  N887  1  0.20870149  0.54880102  0.98611029  1
  H  H888  1  0.11603203  0.73243867  0.82328325  1
  Cu  Cu889  1  0.19463769  0.50983462  0.82365607  1
  N  N890  1  0.01028644  0.70709385  0.77061380  1
  N  N891  1  0.20286641  0.51957646  0.87279232  1
  N  N892  1  0.30366979  0.50249218  0.81229784  1
  H  H893  1  0.04300647  0.62300610  0.98514983  1
  N  N894  1  0.34422566  0.72541051  0.93132257  1
  H  H895  1  0.02162228  0.71842211  0.92659619  1
  N  N896  1  0.37157094  0.57344260  0.99887803  1
  C  C897  1  0.26978652  0.73900636  0.93657540  1
  C  C898  1  0.04129242  0.74098133  0.90583315  1
  N  N899  1  0.44102612  0.50379117  0.96077763  1
  C  C900  1  0.09180261  0.74798317  0.84676628  1
  H  H901  1  0.99606823  0.50607206  0.97656794  1
  N  N902  1  0.50309315  0.52285052  0.93039731  1
  N  N903  1  0.77663548  0.63324163  0.75387586  1
  N  N904  1  0.85238640  0.50532521  0.80108214  1
  N  N905  1  0.83598144  0.69423127  0.99255469  1
  N  N906  1  0.64842947  0.60600374  0.79857255  1
  C  C907  1  0.93713509  0.51189093  0.98878327  1
  C  C908  1  0.86400114  0.50212287  0.97266594  1
  N  N909  1  0.84286932  0.72585046  0.97298563  1
  C  C910  1  0.56969855  0.69630410  0.76471914  1
  C  C911  1  0.68800707  0.57751615  0.81570002  1
  C  C912  1  0.61210346  0.50877597  0.80326829  1
  C  C913  1  0.63033432  0.53948773  0.82875134  1
  N  N914  1  0.93138963  0.65317581  0.80537872  1
  H  H915  1  0.62884783  0.51450079  0.77727326  1
  N  N916  1  0.98896617  0.55132566  0.86061273  1
  N  N917  1  0.76679857  0.57900044  0.82416401  1
  N  N918  1  0.94095894  0.73075223  0.96428913  1
  C  C919  1  0.98324969  0.69895762  0.98177504  1
  C  C920  1  0.59319824  0.53783390  0.86013434  1
  N  N921  1  0.92994006  0.67194659  0.77830601  1
  C  C922  1  0.54119936  0.50193604  0.86725233  1
  C  C923  1  0.51733345  0.66154707  0.77689689  1
  Cu  Cu924  1  0.83860915  0.53627501  0.84385341  1
  C  C925  1  0.65413534  0.67943642  0.75880243  1
  H  H926  1  0.73839452  0.50651400  0.97559898  1
  C  C927  1  0.79220716  0.51317592  0.98821942  1
  Cu  Cu928  1  0.84532050  0.61555086  0.81363582  1
  H  H929  1  0.60001617  0.56322920  0.87944147  1
  H  H930  1  0.53798588  0.62740747  0.77845028  1
  N  N931  1  0.69567375  0.65013639  0.77671198  1
  N  N932  1  0.94047459  0.56323325  0.83992930  1
  C  C933  1  0.54360843  0.73991934  0.76352875  1
  H  H934  1  0.29086912  0.83379916  0.11678424  1
  C  C935  1  0.32123066  0.86433831  0.10892117  1
  C  C936  1  0.33984663  0.87449975  0.16911041  1
  C  C937  1  0.34728037  0.89423017  0.13416549  1
  Cu  Cu938  1  0.19525402  0.91456679  0.19426062  1
  N  N939  1  0.28109670  0.88017110  0.19052312  1
  C  C940  1  0.33378520  0.87381798  0.07463673  1
  C  C941  1  0.30895458  0.83375416  0.05058355  1
  N  N942  1  0.16741773  0.96487310  0.14000903  1
  N  N943  1  0.25673023  0.97555116  0.16075046  1
  H  H944  1  0.20602393  0.97490622  0.09443076  1
  C  C945  1  0.14976457  0.92049883  0.06412968  1
  C  C946  1  0.14201296  0.90560160  0.03074084  1
  C  C947  1  0.18634108  0.96245689  0.06868005  1
  C  C948  1  0.20403304  0.98699576  0.03946868  1
  C  C949  1  0.38009032  0.93398191  0.12217963  1
  C  C950  1  0.37181348  0.91253305  0.06424305  1
  C  C951  1  0.40044260  0.94165550  0.08898490  1
  H  H952  1  0.40685586  0.96129805  0.13790487  1
  N  N953  1  0.29510602  0.84296160  0.01837208  1
  N  N954  1  0.40563093  0.84663948  0.17679434  1
  Cu  Cu955  1  0.39467042  0.81510069  0.21739468  1
  N  N956  1  0.15570655  0.88354103  0.23041436  1
  Cu  Cu957  1  0.24809259  0.84751264  0.23034807  1
  H  H958  1  0.37626105  0.91874941  0.03670966  1
  N  N959  1  0.14447300  0.90819411  0.12887417  1
  C  C960  1  0.12438329  0.89774277  0.09732454  1
  N  N961  1  0.09482339  0.87166865  0.15638919  1
  C  C962  1  0.45833201  0.97905359  0.07798763  1
  N  N963  1  0.30001842  0.79067953  0.05814711  1
  N  N964  1  0.25918047  0.77455596  0.13581041  1
  H  H965  1  0.03837493  0.96205962  0.08590912  1
  N  N966  1  0.08474648  0.86060940  0.09740628  1
  N  N967  1  0.26739219  0.76657587  0.02121870  1
  H  H968  1  0.12231843  0.87108804  0.02523825  1
  N  N969  1  0.31437974  0.76546342  0.09977468  1
  C  C970  1  0.11480583  0.99558111  0.14699911  1
  N  N971  1  0.06413681  0.84532197  0.13713457  1
  C  C972  1  0.18659989  0.97309429  0.00664520  1
  N  N973  1  0.41673343  0.99483047  0.01438526  1
  C  C974  1  0.00138215  0.97717918  0.10621047  1
  C  C975  1  0.02653717  0.91694161  0.24538217  1
  Cu  Cu976  1  0.47538674  0.82160201  0.14566276  1
  Cu  Cu977  1  0.49805252  0.86907378  0.19780472  1
  C  C978  1  0.03008028  0.99549331  0.13674273  1
  N  N979  1  0.02211451  0.84364071  0.00206396  1
  C  C980  1  0.16522357  0.92852239  0.00183770  1
  N  N981  1  0.97974018  0.77077616  0.24547340  1
  H  H982  1  0.99983823  0.88578463  0.19641357  1
  N  N983  1  0.97543686  0.81326577  0.00463319  1
  N  N984  1  0.81540434  0.93561120  0.06817650  1
  N  N985  1  0.61973908  0.82072970  0.23095901  1
  C  C986  1  0.97799060  0.90721668  0.21734965  1
  C  C987  1  0.91954968  0.97662515  0.10148645  1
  C  C988  1  0.91372503  0.75503575  0.23415269  1
  N  N989  1  0.66248629  0.88463841  0.21264470  1
  N  N990  1  0.59171534  0.89776337  0.24113523  1
  C  C991  1  0.74841154  0.81465963  0.19618103  1
  C  C992  1  0.90559807  0.93112550  0.21305841  1
  N  N993  1  0.54447720  0.92399933  0.14652425  1
  Cu  Cu994  1  0.65338397  0.85725256  0.13611085  1
  C  C995  1  0.59164756  0.75940068  0.12189592  1
  N  N996  1  0.86474838  0.91482729  0.01568697  1
  C  C997  1  0.88308275  0.76560072  0.16739637  1
  C  C998  1  0.67311046  0.84136241  0.21100814  1
  C  C999  1  0.77100402  0.80624161  0.16445416  1
  N  N1000  1  0.78672538  0.82016228  0.09447117  1
  Cu  Cu1001  1  0.67743882  0.93684570  0.16282522  1
  N  N1002  1  0.74023347  0.94698169  0.10151557  1
  N  N1003  1  0.80151968  0.91094390  0.03115773  1
  C  C1004  1  0.88897688  0.95344628  0.06942676  1
  H  H1005  1  0.79589890  0.79025149  0.24540437  1
  C  C1006  1  0.80706187  0.79523330  0.21796691  1
  H  H1007  1  0.65300238  0.76407443  0.18622872  1
  H  H1008  1  0.81990181  0.97015543  0.23653386  1
  N  N1009  1  0.57422085  0.82716549  0.08397267  1
  N  N1010  1  0.61853983  0.85718964  0.08980675  1
  N  N1011  1  0.73048453  0.91736739  0.12203080  1
  Cu  Cu1012  1  0.69663274  0.76593627  0.06648661  1
  C  C1013  1  0.83623785  0.92200667  0.18709338  1
  Cu  Cu1014  1  0.59786009  0.93357100  0.10681451  1
  N  N1015  1  0.55213618  0.79719254  0.11939733  1
  C  C1016  1  0.82438267  0.78517121  0.10497289  1
  N  N1017  1  0.53423086  0.97461121  0.08542654  1
  N  N1018  1  0.56480624  0.88910406  0.15981298  1
  C  C1019  1  0.87738833  0.95796338  0.24006929  1
  C  C1020  1  0.82946484  0.78694497  0.14511938  1
  N  N1021  1  0.77204319  0.94796920  0.18479495  1
  N  N1022  1  0.92798734  0.93976763  0.04263867  1
  Cu  Cu1023  1  0.80979353  0.86184684  0.12668519  1
  N  N1024  1  0.84831985  0.88822104  0.16574837  1
  C  C1025  1  0.87058474  0.77294898  0.20173806  1
  H  H1026  1  0.89946594  0.87468963  0.17607452  1
  C  C1027  1  0.86757560  0.99706326  0.12459024  1
  H  H1028  1  0.80413156  0.99732042  0.12140715  1
  N  N1029  1  0.85192168  0.75464956  0.08276067  1
  N  N1030  1  0.17066948  0.81866387  0.28977685  1
  N  N1031  1  0.22867814  0.81140410  0.27344035  1
  C  C1032  1  0.18414072  0.87095716  0.46349384  1
  C  C1033  1  0.19097733  0.87065071  0.42561859  1
  C  C1034  1  0.27083651  0.87669773  0.41441961  1
  C  C1035  1  0.28094598  0.88265037  0.37947118  1
  C  C1036  1  0.12379924  0.87102165  0.40526614  1
  H  H1037  1  0.06203232  0.86849292  0.41512886  1
  C  C1038  1  0.13435967  0.87692139  0.37064219  1
  C  C1039  1  0.21575663  0.87910624  0.35788366  1
  C  C1040  1  0.07442539  0.88150554  0.34309944  1
  H  H1041  1  0.22816010  0.87854305  0.33059146  1
  N  N1042  1  0.10551456  0.86597507  0.28242646  1
  N  N1043  1  0.04111964  0.88237711  0.31789797  1
  H  H1044  1  0.32368371  0.87404363  0.43116753  1
  C  C1045  1  0.36763170  0.88831321  0.36408432  1
  H  H1046  1  0.18838844  0.79113323  0.38585403  1
  N  N1047  1  0.37159477  0.90331131  0.47743292  1
  H  H1048  1  0.30313633  0.96850294  0.40038929  1
  C  C1049  1  0.35290528  0.94501791  0.47115263  1
  N  N1050  1  0.34068675  0.96398144  0.33363511  1
  N  N1051  1  0.39120445  0.91472144  0.33792711  1
  N  N1052  1  0.29507062  0.96504901  0.48708499  1
  C  C1053  1  0.36337501  0.97614935  0.40807980  1
  C  C1054  1  0.39660403  0.96937203  0.44020797  1
  H  H1055  1  0.03651152  0.94801239  0.29652551  1
  N  N1056  1  0.38333984  0.78864934  0.26344384  1
  N  N1057  1  0.42879464  0.86440008  0.37419769  1
  N  N1058  1  0.44626071  0.79235295  0.27799444  1
  C  C1059  1  0.04012364  0.97312703  0.40566708  1
  N  N1060  1  0.30337544  0.97993526  0.29602751  1
  C  C1061  1  0.06937563  0.96573170  0.43869271  1
  C  C1062  1  0.02330993  0.77623409  0.38657403  1
  N  N1063  1  0.09733709  0.78934726  0.44783283  1
  Cu  Cu1064  1  0.45894369  0.77230003  0.32269887  1
  Cu  Cu1065  1  0.29890574  0.76068429  0.29048128  1
  H  H1066  1  0.12536129  0.98201432  0.44716096  1
  N  N1067  1  0.17165693  0.86978566  0.49197536  1
  C  C1068  1  0.17376205  0.76030953  0.37283921  1
  C  C1069  1  0.02215656  0.94448337  0.46321926  1
  C  C1070  1  0.47629158  0.97928661  0.44785821  1
  N  N1071  1  0.35727473  0.75958782  0.33065383  1
  C  C1072  1  0.04790994  0.94458302  0.49839647  1
  C  C1073  1  0.00286085  0.94631567  0.27172563  1
  N  N1074  1  0.01534885  0.78988486  0.41857784  1
  C  C1075  1  0.09861257  0.88652257  0.25312487  1
  C  C1076  1  0.09391719  0.99515379  0.38255134  1
  N  N1077  1  0.47673409  0.81268725  0.47637737  1
  N  N1078  1  0.35707009  0.75375335  0.38876617  1
  N  N1079  1  0.26639616  0.76549964  0.43754890  1
  N  N1080  1  0.49228181  0.91752543  0.33639433  1
  N  N1081  1  0.11583486  0.75059462  0.45239450  1
  N  N1082  1  0.61011016  0.75015418  0.31010257  1
  C  C1083  1  0.89787926  0.99555453  0.29736857  1
  C  C1084  1  0.77138848  0.79340593  0.48416277  1
  N  N1085  1  0.50009092  0.75783581  0.36982713  1
  C  C1086  1  0.83638741  0.92301834  0.41219450  1
  N  N1087  1  0.64113286  0.78179147  0.29651514  1
  H  H1088  1  0.90205644  0.91215618  0.47087417  1
  N  N1089  1  0.77451365  0.91508766  0.40674402  1
  H  H1090  1  0.50229770  0.97079008  0.47176439  1
  N  N1091  1  0.64227139  0.77332162  0.25359846  1
  N  N1092  1  0.90215849  0.82264315  0.39610842  1
  N  N1093  1  0.53346762  0.80552122  0.45732928  1
  N  N1094  1  0.93605958  0.82442385  0.42371705  1
  H  H1095  1  0.94482144  0.95485980  0.36900415  1
  N  N1096  1  0.96573826  0.79271379  0.36896670  1
  C  C1097  1  0.92600558  0.96573013  0.26901589  1
  N  N1098  1  0.57000440  0.86156724  0.25204525  1
  N  N1099  1  0.51427721  0.88771305  0.35547427  1
  N  N1100  1  0.71526071  0.86821030  0.47527958  1
  C  C1101  1  0.92018622  0.93638318  0.42064845  1
  C  C1102  1  0.94501125  0.92783361  0.45313443  1
  C  C1103  1  0.96670419  0.95627239  0.39474385  1
  N  N1104  1  0.70864432  0.81294373  0.46942882  1
  N  N1105  1  0.61214837  0.79555675  0.48481593  1
  N  N1106  1  0.85102366  0.98260744  0.32158209  1
  N  N1107  1  0.77916764  0.87536472  0.48942448  1
  N  N1108  1  0.82253608  0.82383100  0.49318392  1
  C  C1109  1  0.33106014  0.85655998  0.65382221  1
  C  C1110  1  0.28233215  0.88361477  0.62851337  1
  N  N1111  1  0.27961887  0.86732830  0.59537747  1
  Cu  Cu1112  1  0.19870265  0.88475512  0.56619879  1
  C  C1113  1  0.30507990  0.81222100  0.66049551  1
  H  H1114  1  0.25230972  0.79585020  0.64997017  1
  C  C1115  1  0.35247027  0.78541920  0.68034660  1
  H  H1116  1  0.29358471  0.79409391  0.59081866  1
  C  C1117  1  0.35141028  0.77352128  0.59039770  1
  N  N1118  1  0.37595078  0.87433527  0.57546570  1
  C  C1119  1  0.42365126  0.79276961  0.58152923  1
  N  N1120  1  0.25401013  0.92387169  0.63393121  1
  N  N1121  1  0.21474063  0.95345389  0.59716626  1
  C  C1122  1  0.40632392  0.87155052  0.66519581  1
  H  H1123  1  0.43399955  0.90389629  0.65798910  1
  C  C1124  1  0.42769845  0.84204527  0.57079212  1
  C  C1125  1  0.42165618  0.80249376  0.69624275  1
  Cu  Cu1126  1  0.24922076  0.95433530  0.67618592  1
  C  C1127  1  0.03811192  0.93969969  0.60591146  1
  C  C1128  1  0.03701593  0.89963983  0.58401441  1
  N  N1129  1  0.08951527  0.76353499  0.69311022  1
  N  N1130  1  0.05027582  0.86005100  0.59703272  1
  N  N1131  1  0.07025401  0.81136312  0.64351952  1
  N  N1132  1  0.05180504  0.79593241  0.68558798  1
  N  N1133  1  0.03409211  0.89651847  0.55071782  1
  N  N1134  1  0.05160331  0.84085943  0.53906640  1
  N  N1135  1  0.05622468  0.82137180  0.56581715  1
  N  N1136  1  0.41178798  0.92250966  0.55482992  1
  C  C1137  1  0.44965052  0.84512369  0.68770775  1
  N  N1138  1  0.24233016  0.88600241  0.52285531  1
  N  N1139  1  0.03214769  0.84496165  0.63937717  1
  Cu  Cu1140  1  0.25322900  0.94764960  0.52956680  1
  C  C1141  1  0.03630069  0.93773315  0.64219974  1
  C  C1142  1  0.04416064  0.98227804  0.59088082  1
  Cu  Cu1143  1  0.34513665  0.86819384  0.51147157  1
  N  N1144  1  0.06611906  0.94365028  0.52604245  1
  H  H1145  1  0.03877756  0.98578219  0.56368062  1
  H  H1146  1  0.45812071  0.78243017  0.71306877  1
  H  H1147  1  0.03274144  0.90708065  0.65653916  1
  N  N1148  1  0.47067998  0.91389244  0.53899793  1
  C  C1149  1  0.03153308  0.97926592  0.65765576  1
  N  N1150  1  0.36667534  0.96313584  0.72262640  1
  N  N1151  1  0.23944080  0.99111683  0.59421568  1
  C  C1152  1  0.49305669  0.76568140  0.57936979  1
  N  N1153  1  0.48608777  0.85615159  0.54855759  1
  C  C1154  1  0.00479622  0.98814867  0.69596130  1
  N  N1155  1  0.07684513  0.75060250  0.73574114  1
  N  N1156  1  0.43271217  0.97685438  0.72860421  1
  H  H1157  1  0.70713849  0.75110410  0.54654187  1
  C  C1158  1  0.70684445  0.78377721  0.55778923  1
  C  C1159  1  0.71231752  0.87159856  0.58104731  1
  C  C1160  1  0.87582099  0.88147955  0.71447210  1
  Cu  Cu1161  1  0.88495586  0.97020534  0.74139785  1
  H  H1162  1  0.80444325  0.84781529  0.61467159  1
  C  C1163  1  0.86757190  0.82912528  0.72038847  1
  N  N1164  1  0.55736415  0.83091673  0.73099534  1
  N  N1165  1  0.65283347  0.84553891  0.74025912  1
  C  C1166  1  0.76225471  0.79527988  0.58339297  1
  C  C1167  1  0.53494138  0.85232779  0.70222325  1
  N  N1168  1  0.83378185  0.92985531  0.62144621  1
  N  N1169  1  0.59389021  0.87504165  0.68946044  1
  C  C1170  1  0.79818538  0.76089932  0.70603914  1
  C  C1171  1  0.76533620  0.83843742  0.59453811  1
  C  C1172  1  0.80680622  0.80835304  0.70338205  1
  N  N1173  1  0.93642657  0.97141097  0.69977205  1
  N  N1174  1  0.51836411  0.82047668  0.51728156  1
  H  H1175  1  0.54908620  0.77820961  0.56730993  1
  H  H1176  1  0.60882393  0.88232982  0.54660043  1
  N  N1177  1  0.87415027  0.89406006  0.68277117  1
  H  H1178  1  0.76967374  0.82665842  0.68701022  1
  N  N1179  1  0.70711702  0.91228332  0.59577311  1
  C  C1180  1  0.65632307  0.81705062  0.54377559  1
  C  C1181  1  0.77290838  0.92288853  0.61006640  1
  C  C1182  1  0.92493367  0.80576636  0.73876041  1
  C  C1183  1  0.82667239  0.76093659  0.60041963  1
  N  N1184  1  0.67357676  0.86778365  0.71641783  1
  C  C1185  1  0.92523703  0.75803520  0.73442954  1
  Cu  Cu1186  1  0.88495681  0.94858911  0.66156214  1
  N  N1187  1  0.89873608  0.75969169  0.58677867  1
  N  N1188  1  0.87698085  0.91068364  0.73913568  1
  C  C1189  1  0.59294450  0.80904867  0.51553610  1
  C  C1190  1  0.65390564  0.85972464  0.55687039  1
  N  N1191  1  0.15615026  0.81923566  0.79392939  1
  N  N1192  1  0.39255626  0.82247329  0.79817006  1
  N  N1193  1  0.40395505  0.87931088  0.79834591  1
  N  N1194  1  0.29564342  0.80735727  0.78722724  1
  N  N1195  1  0.35110931  0.79620533  0.90964821  1
  C  C1196  1  0.16987232  0.90958138  0.96501987  1
  Cu  Cu1197  1  0.06877197  0.97274064  0.79543347  1
  C  C1198  1  0.08372353  0.79395625  0.84944346  1
  N  N1199  1  0.13490281  0.85290544  0.76156420  1
  C  C1200  1  0.09287144  0.82040837  0.81588981  1
  N  N1201  1  0.20299255  0.93660297  0.94265924  1
  N  N1202  1  0.06955057  0.86864877  0.76650450  1
  C  C1203  1  0.05676951  0.81273842  0.87967012  1
  N  N1204  1  0.25309451  0.82190494  0.80942611  1
  N  N1205  1  0.46192567  0.88784141  0.78096856  1
  C  C1206  1  0.45455860  0.80355184  0.78122968  1
  N  N1207  1  0.03995808  0.84784554  0.80405937  1
  H  H1208  1  0.04849612  0.84928835  0.88128089  1
  N  N1209  1  0.25660433  0.77756586  0.92147515  1
  N  N1210  1  0.14292592  0.87315157  0.94848672  1
  C  C1211  1  0.03636691  0.78724022  0.90764798  1
  N  N1212  1  0.17933789  0.98406307  0.78627367  1
  N  N1213  1  0.39732737  0.76611722  0.91500614  1
  C  C1214  1  0.46935517  0.75409217  0.77693629  1
  N  N1215  1  0.20259661  0.98091012  0.75797708  1
  H  H1216  1  0.20070896  0.99374551  0.98397937  1
  N  N1217  1  0.05205184  0.84384387  0.95983483  1
  N  N1218  1  0.19493536  0.91676427  0.90322083  1
  N  N1219  1  0.15422084  0.88312262  0.90644843  1
  H  H1220  1  0.11533235  0.75535613  0.95836478  1
  N  N1221  1  0.30981207  0.99076472  0.75213946  1
  C  C1222  1  0.02371793  0.80765998  0.94361101  1
  H  H1223  1  0.23773761  0.99986873  0.81861984  1
  N  N1224  1  0.26415783  0.79514750  0.99957993  1
  N  N1225  1  0.49680268  0.83656106  0.76794552  1
  N  N1226  1  0.94785312  0.95858601  0.79578038  1
  N  N1227  1  0.97337911  0.78750235  0.96473760  1
  H  H1228  1  0.58498389  0.76818376  0.75514253  1
  N  N1229  1  0.90771873  0.99025736  0.80318013  1
  Cu  Cu1230  1  0.88271598  0.90856592  0.78481733  1
  H  H1231  1  0.97648703  0.82127832  0.75181355  1
