# generated using pymatgen
data_CuH5C7NO5
_symmetry_space_group_name_H-M   'P 1'
_cell_length_a   24.01532417
_cell_length_b   32.49713758
_cell_length_c   32.78882969
_cell_angle_alpha   90.00000000
_cell_angle_beta   90.00000000
_cell_angle_gamma   90.00000000
_symmetry_Int_Tables_number   1
_chemical_formula_structural   CuH5C7NO5
_chemical_formula_sum   'Cu96 H480 C672 N96 O480'
_cell_volume   25589.36319741
_cell_formula_units_Z   96
loop_
 _symmetry_equiv_pos_site_id
 _symmetry_equiv_pos_as_xyz
  1  'x, y, z'
loop_
 _atom_site_type_symbol
 _atom_site_label
 _atom_site_symmetry_multiplicity
 _atom_site_fract_x
 _atom_site_fract_y
 _atom_site_fract_z
 _atom_site_occupancy
  N  N0  1  0.13292790  0.15182686  0.10683612  1
  Cu  Cu1  1  0.05094281  0.13143317  0.12591352  1
  H  H2  1  0.12892265  0.16554042  0.07713231  1
  C  C3  1  0.18294624  0.12921955  0.09455624  1
  C  C4  1  0.18834379  0.12419159  0.04840698  1
  O  O5  1  0.05034783  0.17811671  0.15270536  1
  C  C6  1  0.09345078  0.19986888  0.15664584  1
  H  H7  1  0.17000621  0.15958167  0.15641879  1
  C  C8  1  0.14665411  0.18317563  0.13861182  1
  O  O9  1  0.10045226  0.22594750  0.18289924  1
  O  O10  1  0.22012815  0.11927421  0.11658341  1
  C  C11  1  0.18962741  0.21025736  0.12159265  1
  H  H12  1  0.21712505  0.19273079  0.10021920  1
  O  O13  1  0.04590919  0.08322418  0.09737717  1
  C  C14  1  0.03006715  0.08403196  0.06079773  1
  O  O15  1  0.07350900  0.09989027  0.17819279  1
  C  C16  1  0.04873390  0.08383124  0.20696743  1
  H  H17  1  0.21762296  0.18853319  0.23322082  1
  O  O18  1  0.20166243  0.06591729  0.22438712  1
  C  C19  1  0.21660148  0.10079458  0.22610311  1
  H  H20  1  0.24276050  0.11694202  0.16723915  1
  N  N21  1  0.25109854  0.12237467  0.19688627  1
  C  C22  1  0.24498589  0.12027742  0.03602643  1
  H  H23  1  0.27683891  0.11977678  0.05957282  1
  O  O24  1  0.30345503  0.20185920  0.18777885  1
  C  C25  1  0.31049110  0.12869614  0.20770536  1
  C  C26  1  0.33201342  0.17194613  0.18841940  1
  O  O27  1  0.38329990  0.16968498  0.17776772  1
  H  H28  1  0.33383055  0.08757708  0.16204433  1
  C  C29  1  0.33777838  0.08804841  0.19605150  1
  C  C30  1  0.36113585  0.06841687  0.07513919  1
  O  O31  1  0.40382234  0.08107288  0.09540423  1
  O  O32  1  0.36745883  0.17603783  0.07321859  1
  C  C33  1  0.39484643  0.19811657  0.05245989  1
  H  H34  1  0.31042464  0.06320755  0.20745801  1
  H  H35  1  0.29843783  0.13011946  0.24018344  1
  H  H36  1  0.42029861  0.20307847  0.13310216  1
  C  C37  1  0.44684883  0.22326403  0.11387836  1
  C  C38  1  0.05528605  0.05179259  0.03527936  1
  C  C39  1  0.39438879  0.08063137  0.21029944  1
  Cu  Cu40  1  0.43901862  0.16346069  0.21758470  1
  O  O41  1  0.40738436  0.04442685  0.19895791  1
  H  H42  1  0.09815133  0.13162240  0.03545826  1
  C  C43  1  0.14189537  0.12694585  0.02262528  1
  O  O44  1  0.42409782  0.10255776  0.23181706  1
  C  C45  1  0.07518300  0.04337251  0.21940832  1
  N  N46  1  0.45502255  0.22394716  0.20059487  1
  C  C47  1  0.44202112  0.21994190  0.07092036  1
  H  H48  1  0.12278246  0.04984686  0.22218362  1
  H  H49  1  0.12927577  0.03492230  0.07727502  1
  H  H50  1  0.42751852  0.23347592  0.17685447  1
  O  O51  1  0.04026661  0.21651666  0.03373520  1
  H  H52  1  0.21381608  0.22178166  0.14658751  1
  C  C53  1  0.36913309  0.05855861  0.02563426  1
  C  C54  1  0.09748645  0.02375253  0.05375852  1
  C  C55  1  0.47171176  0.05565530  0.02435004  1
  Cu  Cu56  1  0.45674041  0.04203624  0.10900414  1
  O  O57  1  0.47209328  0.02708298  0.04915559  1
  Cu  Cu58  1  0.07011790  0.22221193  0.23798200  1
  O  O59  1  0.12881460  0.23798865  0.07303101  1
  O  O60  1  0.31653511  0.06235096  0.09067992  1
  Cu  Cu61  1  0.45394153  0.00281281  0.22677988  1
  H  H62  1  0.31678370  0.23438686  0.01242808  1
  H  H63  1  0.07705001  0.06590498  0.00762968  1
  C  C64  1  0.48222877  0.23899267  0.04647021  1
  H  H65  1  0.48005714  0.23736153  0.01274578  1
  H  H66  1  0.36908801  0.02356851  0.02383863  1
  H  H67  1  0.06979769  0.02191730  0.19206336  1
  H  H68  1  0.42929563  0.11083113  0.03118513  1
  C  C69  1  0.42234123  0.08085611  0.01601061  1
  N  N70  1  0.14363008  0.01562956  0.02402997  1
  H  H71  1  0.02307546  0.03511269  0.01660642  1
  O  O72  1  0.01623107  0.10200982  0.22997312  1
  C  C73  1  0.49146325  0.24425269  0.12986064  1
  Cu  Cu74  1  0.05420369  0.24824080  0.07862273  1
  N  N75  1  0.38180367  0.21030326  0.01157177  1
  C  C76  1  0.16640135  0.24721442  0.09653034  1
  H  H77  1  0.28367397  0.05342971  0.00116116  1
  C  C78  1  0.44348525  0.25143869  0.23781845  1
  N  N79  1  0.33583647  0.43051629  0.00066784  1
  H  H80  1  0.48620856  0.26227731  0.24269055  1
  H  H81  1  0.30785450  0.42517841  0.02509943  1
  O  O82  1  0.11013566  0.42870125  0.17823441  1
  C  C83  1  0.33699750  0.49528898  0.15937054  1
  C  C84  1  0.36333973  0.46690956  0.00288714  1
  C  C85  1  0.18352652  0.30668652  0.19180171  1
  O  O86  1  0.18489694  0.46360828  0.08613458  1
  C  C87  1  0.27862256  0.49271510  0.14714417  1
  C  C88  1  0.01274532  0.40989118  0.15611311  1
  H  H89  1  0.11105130  0.47280884  0.00634446  1
  H  H90  1  0.01568258  0.38129003  0.17545841  1
  O  O91  1  0.04253902  0.46775004  0.19824097  1
  O  O92  1  0.18647641  0.28104659  0.09949556  1
  O  O93  1  0.01784558  0.39536878  0.11788804  1
  O  O94  1  0.04665172  0.31960139  0.19926013  1
  H  H95  1  0.20538853  0.28233443  0.20844605  1
  O  O96  1  0.22896705  0.36863699  0.16988132  1
  H  H97  1  0.02811255  0.33111900  0.07611950  1
  H  H98  1  0.30333893  0.48991578  0.07122536  1
  O  O99  1  0.32840910  0.34963930  0.02900550  1
  C  C100  1  0.32352538  0.31228658  0.03498859  1
  Cu  Cu101  1  0.15056535  0.44624948  0.13323181  1
  H  H102  1  0.14277452  0.36458335  0.20824428  1
  H  H103  1  0.39411583  0.26760237  0.05830474  1
  O  O104  1  0.19020138  0.48400613  0.16855617  1
  Cu  Cu105  1  0.26520871  0.29606468  0.10199328  1
  O  O106  1  0.28073745  0.29600171  0.04677588  1
  O  O107  1  0.40576252  0.44264665  0.16974653  1
  H  H108  1  0.36153303  0.28084850  0.22757176  1
  H  H109  1  0.41187137  0.30232716  0.01756176  1
  C  C110  1  0.41969099  0.32660640  0.23933130  1
  O  O111  1  0.46910233  0.33870093  0.24227085  1
  C  C112  1  0.22723770  0.33005840  0.17047478  1
  C  C113  1  0.35758092  0.44750509  0.16448121  1
  H  H114  1  0.41702108  0.28885152  0.18957220  1
  Cu  Cu115  1  0.27622123  0.40195085  0.20817923  1
  C  C116  1  0.40849670  0.28541921  0.22187965  1
  O  O117  1  0.26312866  0.30722135  0.15415517  1
  O  O118  1  0.04728747  0.48359984  0.07135817  1
  C  C119  1  0.24002910  0.48128659  0.17982798  1
  H  H120  1  0.15935131  0.28837692  0.16817663  1
  O  O121  1  0.24893643  0.46070732  0.21230311  1
  C  C122  1  0.14547461  0.33164962  0.21814828  1
  C  C123  1  0.14987052  0.48492428  0.01788590  1
  O  O124  1  0.20467062  0.42308798  0.03446010  1
  C  C125  1  0.18340699  0.45328619  0.04862198  1
  O  O126  1  0.32061912  0.41967727  0.16360951  1
  C  C127  1  0.05764326  0.43855641  0.17943989  1
  C  C128  1  0.08263224  0.30907999  0.22208329  1
  H  H129  1  0.27165369  0.46998819  0.12112804  1
  C  C130  1  0.37675564  0.28302791  0.02991204  1
  O  O131  1  0.07715520  0.28036983  0.24795475  1
  O  O132  1  0.48454297  0.44945000  0.24954533  1
  C  C133  1  0.35782152  0.25074500  0.00211686  1
  C  C134  1  0.20015288  0.12855245  0.33554259  1
  C  C135  1  0.19368287  0.10745583  0.37728517  1
  H  H136  1  0.19637008  0.18674642  0.36432089  1
  C  C137  1  0.19782468  0.17042018  0.33512793  1
  O  O138  1  0.19275204  0.13000823  0.41035434  1
  O  O139  1  0.06621232  0.14950384  0.43267328  1
  Cu  Cu140  1  0.13710007  0.12446364  0.44470846  1
  N  N141  1  0.15510253  0.07263461  0.37509520  1
  H  H142  1  0.13405328  0.06591137  0.34832334  1
  C  C143  1  0.06760714  0.19928900  0.31922129  1
  O  O144  1  0.07444010  0.16177520  0.31929194  1
  C  C145  1  0.20048053  0.10562528  0.29810689  1
  C  C146  1  0.20079155  0.19189639  0.29776402  1
  H  H147  1  0.12145981  0.20320983  0.37058390  1
  C  C148  1  0.02558215  0.12824524  0.44558005  1
  H  H149  1  0.19819269  0.07242312  0.29892298  1
  C  C150  1  0.20902920  0.05439561  0.37511754  1
  H  H151  1  0.21718310  0.04093990  0.34481407  1
  H  H152  1  0.23956158  0.04060567  0.43692499  1
  H  H153  1  0.30897386  0.08894328  0.44434387  1
  Cu  Cu154  1  0.36850700  0.05882697  0.34774837  1
  O  O155  1  0.37698188  0.02886647  0.46590222  1
  C  C156  1  0.39241044  0.06282855  0.44981430  1
  C  C157  1  0.34994741  0.10195911  0.45303679  1
  O  O158  1  0.43292144  0.06697618  0.42912079  1
  H  H159  1  0.41408261  0.12995869  0.41695538  1
  C  C160  1  0.36790171  0.13410328  0.42255002  1
  H  H161  1  0.05938008  0.06198020  0.43116751  1
  H  H162  1  0.22831020  0.19012079  0.43768658  1
  Cu  Cu163  1  0.04448862  0.13126991  0.27565100  1
  C  C164  1  0.33672434  0.13423833  0.38344196  1
  C  C165  1  0.19996613  0.23748892  0.29923775  1
  H  H166  1  0.40445842  0.17119675  0.46870125  1
  C  C167  1  0.24104015  0.19002896  0.46928989  1
  N  N168  1  0.38038031  0.17204526  0.44320000  1
  C  C169  1  0.04123476  0.08066327  0.45567211  1
  O  O170  1  0.32618813  0.10199812  0.36383228  1
  O  O171  1  0.32006772  0.16882080  0.37264952  1
  O  O172  1  0.04058554  0.21522257  0.29155586  1
  O  O173  1  0.07546239  0.08053377  0.29567480  1
  C  C174  1  0.04904139  0.04584020  0.29648445  1
  Cu  Cu175  1  0.36301653  0.20273541  0.34121835  1
  H  H176  1  0.35416296  0.11297011  0.48465392  1
  C  C177  1  0.40421507  0.20353748  0.41890240  1
  H  H178  1  0.14630063  0.22244459  0.44553848  1
  N  N179  1  0.09045745  0.07981536  0.48437025  1
  O  O180  1  0.41736074  0.20626166  0.38274059  1
  C  C181  1  0.09309138  0.22480370  0.35558292  1
  O  O182  1  0.03091012  0.02712974  0.32363542  1
  C  C183  1  0.12022460  0.04210802  0.47931265  1
  C  C184  1  0.23618777  0.02704887  0.40587342  1
  O  O185  1  0.31256685  0.01710858  0.36088509  1
  C  C186  1  0.43209464  0.23329433  0.44616920  1
  C  C187  1  0.42297513  0.22532975  0.27361192  1
  H  H188  1  0.28666758  0.19517266  0.46956041  1
  C  C189  1  0.42081150  0.24050789  0.48735513  1
  N  N190  1  0.16964409  0.24286031  0.46298925  1
  O  O191  1  0.41363924  0.01811549  0.32746338  1
  C  C192  1  0.20811810  0.12827596  0.26294180  1
  O  O193  1  0.13201353  0.02215983  0.45064605  1
  O  O194  1  0.43019977  0.18761739  0.27000874  1
  C  C195  1  0.28980727  0.00792019  0.39449896  1
  O  O196  1  0.39560064  0.24008936  0.30159803  1
  O  O197  1  0.17947642  0.13974236  0.49341791  1
  C  C198  1  0.21337504  0.22611667  0.49087847  1
  C  C199  1  0.22769530  0.15080330  0.49142115  1
  C  C200  1  0.05370786  0.01947820  0.25412078  1
  H  H201  1  0.20866105  0.00031231  0.41477088  1
  C  C202  1  0.20904496  0.17114726  0.26130797  1
  H  H203  1  0.05965008  0.23013936  0.37874023  1
  H  H204  1  0.48716600  0.24904047  0.39700538  1
  N  N205  1  0.18284745  0.25379882  0.33842458  1
  H  H206  1  0.31330299  0.46726901  0.47573358  1
  C  C207  1  0.39028975  0.49923254  0.47726684  1
  O  O208  1  0.30553810  0.25955801  0.49407545  1
  N  N209  1  0.33319324  0.49688326  0.47280918  1
  O  O210  1  0.09292318  0.49350731  0.49390503  1
  Cu  Cu211  1  0.48141927  0.39407064  0.25130012  1
  C  C212  1  0.15519528  0.31117077  0.49532994  1
  C  C213  1  0.49152256  0.29091084  0.49235845  1
  O  O214  1  0.21523997  0.25506145  0.27011375  1
  C  C215  1  0.40983414  0.39097849  0.37123725  1
  H  H216  1  0.11295873  0.26815413  0.30898777  1
  O  O217  1  0.49546099  0.49139666  0.30168414  1
  H  H218  1  0.41264030  0.33316304  0.40633735  1
  O  O219  1  0.14869080  0.31933487  0.38264037  1
  H  H220  1  0.24863507  0.46022645  0.29924170  1
  H  H221  1  0.29203041  0.47525527  0.34239641  1
  O  O222  1  0.00724963  0.36586760  0.42202418  1
  Cu  Cu223  1  0.19664438  0.36606882  0.36936972  1
  H  H224  1  0.47094132  0.42599948  0.43987253  1
  H  H225  1  0.03065694  0.47361120  0.32066614  1
  C  C226  1  0.33254086  0.36433140  0.41310644  1
  C  C227  1  0.27779446  0.38408088  0.47240644  1
  H  H228  1  0.08187734  0.35451540  0.27521757  1
  C  C229  1  0.30555309  0.33535296  0.38342175  1
  O  O230  1  0.00970301  0.25586834  0.42328629  1
  H  H231  1  0.02233439  0.33250429  0.30242831  1
  H  H232  1  0.41076278  0.38126428  0.43767224  1
  Cu  Cu233  1  0.13784764  0.42113106  0.40788690  1
  C  C234  1  0.11402294  0.46748520  0.29749769  1
  C  C235  1  0.22055017  0.44686129  0.35871542  1
  O  O236  1  0.37945092  0.34140136  0.25901821  1
  C  C237  1  0.24890471  0.47427800  0.33080756  1
  Cu  Cu238  1  0.46322656  0.45755393  0.34084013  1
  O  O239  1  0.06019357  0.31084136  0.36881757  1
  C  C240  1  0.47577333  0.25555633  0.42824338  1
  C  C241  1  0.22534818  0.36322628  0.48645651  1
  H  H242  1  0.19370361  0.45660394  0.27026574  1
  O  O243  1  0.28420510  0.42126375  0.47649726  1
  C  C244  1  0.06184452  0.45156719  0.31008447  1
  O  O245  1  0.42031809  0.42779486  0.37736753  1
  C  C246  1  0.09180579  0.38570524  0.28720250  1
  O  O247  1  0.40766798  0.37448341  0.33658952  1
  C  C248  1  0.39267536  0.36621481  0.40955915  1
  C  C249  1  0.14662631  0.39954858  0.27828765  1
  O  O250  1  0.08843532  0.38852016  0.43875256  1
  C  C251  1  0.11027975  0.30001487  0.36705726  1
  C  C252  1  0.15726412  0.44211805  0.28324185  1
  C  C253  1  0.05080304  0.41018507  0.30321147  1
  O  O254  1  0.24021289  0.41094002  0.35689776  1
  C  C255  1  0.12318304  0.26216373  0.34145624  1
  H  H256  1  0.20854646  0.27695964  0.35205737  1
  O  O257  1  0.17929005  0.45738116  0.37916672  1
  H  H258  1  0.31740962  0.39671657  0.41134618  1
  C  C259  1  0.20307734  0.32526011  0.47647664  1
  N  N260  1  0.31585667  0.35429363  0.45546467  1
  Cu  Cu261  1  0.01354919  0.31100436  0.41612863  1
  O  O262  1  0.33178687  0.31388189  0.35944163  1
  Cu  Cu263  1  0.36162001  0.32820046  0.31363609  1
  H  H264  1  0.22425120  0.30912122  0.45149230  1
  O  O265  1  0.25344611  0.33319399  0.38637605  1
  C  C266  1  0.03767258  0.38457762  0.44617000  1
  C  C267  1  0.13319005  0.26781671  0.48612016  1
  C  C268  1  0.01505542  0.40759334  0.48361222  1
  H  H269  1  0.29670394  0.32748405  0.46162026  1
  C  C270  1  0.19454885  0.37760098  0.26515930  1
  C  C271  1  0.47875034  0.47316178  0.49695862  1
  H  H272  1  0.09844324  0.41451789  0.49886432  1
  N  N273  1  0.17400654  0.33669931  0.25751767  1
  H  H274  1  0.19748169  0.30975603  0.26680142  1
  O  O275  1  0.24124643  0.39187118  0.25872334  1
  C  C276  1  0.03990058  0.19778403  0.62717012  1
  C  C277  1  0.08487088  0.21254231  0.66020464  1
  N  N278  1  0.13032398  0.21120970  0.63626556  1
  H  H279  1  0.07519319  0.13967869  0.60871361  1
  H  H280  1  0.15448691  0.13277158  0.66519632  1
  C  C281  1  0.19649203  0.08779180  0.61385410  1
  C  C282  1  0.16135111  0.06238177  0.54713957  1
  H  H283  1  0.09970056  0.09838706  0.67406072  1
  H  H284  1  0.17666608  0.09028581  0.53229049  1
  C  C285  1  0.17942302  0.20833916  0.65574186  1
  H  H286  1  0.17970211  0.20523952  0.68981611  1
  C  C287  1  0.21994555  0.20466975  0.62700846  1
  H  H288  1  0.20779569  0.21333611  0.59535374  1
  C  C289  1  0.14063194  0.10679508  0.68446053  1
  C  C290  1  0.16444640  0.05625667  0.58875714  1
  C  C291  1  0.13487647  0.03185065  0.52388009  1
  N  N292  1  0.21636755  0.06603939  0.65097525  1
  O  O293  1  0.20224385  0.12305630  0.60742974  1
  C  C294  1  0.27357636  0.18758247  0.63201250  1
  O  O295  1  0.29403643  0.17509052  0.66634945  1
  H  H296  1  0.28152701  0.06917404  0.55843889  1
  C  C297  1  0.34944891  0.06698267  0.60518530  1
  C  C298  1  0.41556214  0.13677330  0.54473873  1
  N  N299  1  0.31658820  0.08326071  0.57038222  1
  O  O300  1  0.37404433  0.15903675  0.54043638  1
  O  O301  1  0.37668367  0.09103303  0.62995292  1
  H  H302  1  0.29672914  0.22376537  0.72327352  1
  Cu  Cu303  1  0.30023783  0.14696823  0.55685534  1
  O  O304  1  0.40703214  0.17897900  0.66667208  1
  Cu  Cu305  1  0.35277853  0.13975789  0.65267501  1
  O  O306  1  0.30193700  0.18552084  0.59869043  1
  C  C307  1  0.43252660  0.20296705  0.64319447  1
  C  C308  1  0.40850104  0.24103885  0.62654295  1
  C  C309  1  0.33806794  0.23527227  0.72453013  1
  C  C310  1  0.18378126  0.07316565  0.68774091  1
  C  C311  1  0.16405052  0.03437407  0.70629095  1
  H  H312  1  0.22128406  0.03887975  0.63636880  1
  C  C313  1  0.41417619  0.09187959  0.54045561  1
  H  H314  1  0.45504638  0.08240020  0.55513032  1
  O  O315  1  0.45963910  0.14947405  0.56155450  1
  C  C316  1  0.36729536  0.06536965  0.55509571  1
  C  C317  1  0.03967973  0.16073070  0.60534697  1
  H  H318  1  0.38515044  0.21330863  0.56823808  1
  C  C319  1  0.39667428  0.24404385  0.58152942  1
  H  H320  1  0.22214785  0.08302162  0.70492301  1
  O  O321  1  0.11798964  0.03041434  0.72448404  1
  H  H322  1  0.36756653  0.24629094  0.64345390  1
  H  H323  1  0.37372623  0.02650138  0.67225300  1
  H  H324  1  0.35808865  0.03770464  0.53563191  1
  O  O325  1  0.04252993  0.09318717  0.56261707  1
  O  O326  1  0.47762354  0.19353158  0.62818513  1
  C  C327  1  0.13883458  0.12533544  0.73144823  1
  O  O328  1  0.17318086  0.15560227  0.73468216  1
  H  H329  1  0.18792203  0.21804029  0.51856895  1
  C  C330  1  0.32621747  0.02508112  0.61626800  1
  H  H331  1  0.08352438  0.09003587  0.51425818  1
  C  C332  1  0.13463570  0.02352827  0.60789438  1
  O  O333  1  0.26618197  0.13235574  0.50973052  1
  C  C334  1  0.43350159  0.21927000  0.74646635  1
  C  C335  1  0.37742526  0.20967982  0.74311863  1
  O  O336  1  0.20054418  0.00734802  0.70552497  1
  C  C337  1  0.34261897  0.00830595  0.65380074  1
  H  H338  1  0.13206168  0.02406371  0.64186933  1
  O  O339  1  0.07637554  0.22675680  0.69324992  1
  H  H340  1  0.27244641  0.00687073  0.56387798  1
  H  H341  1  0.41847330  0.08382946  0.50683482  1
  H  H342  1  0.38850680  0.22226599  0.50085733  1
  H  H343  1  0.40481000  0.44855290  0.52340204  1
  O  O344  1  0.25289607  0.40385672  0.59377804  1
  O  O345  1  0.03207574  0.33282840  0.62577914  1
  O  O346  1  0.14026037  0.42568282  0.58230222  1
  C  C347  1  0.44917645  0.25822168  0.73229407  1
  H  H348  1  0.25269171  0.26112704  0.67749245  1
  C  C349  1  0.29353062  0.38049473  0.59422915  1
  H  H350  1  0.47976779  0.49766199  0.57133215  1
  C  C351  1  0.25959492  0.25761925  0.51023751  1
  O  O352  1  0.18209807  0.29539715  0.61928946  1
  C  C353  1  0.32021939  0.29789835  0.67693907  1
  H  H354  1  0.37573134  0.36982159  0.61935149  1
  H  H355  1  0.42874032  0.31181596  0.69698547  1
  H  H356  1  0.03393167  0.42638565  0.57276884  1
  O  O357  1  0.32996909  0.30542335  0.63989744  1
  C  C358  1  0.05569822  0.47395678  0.51201795  1
  H  H359  1  0.28857717  0.30956073  0.73260085  1
  N  N360  1  0.05444230  0.40807497  0.55274717  1
  H  H361  1  0.43595045  0.26709250  0.63402900  1
  C  C362  1  0.23299584  0.29100580  0.68675354  1
  C  C363  1  0.14567025  0.37426759  0.52905040  1
  H  H364  1  0.34823698  0.27392963  0.53689089  1
  C  C365  1  0.12454423  0.33563869  0.52237637  1
  O  O366  1  0.45487842  0.42333162  0.61337696  1
  O  O367  1  0.19594779  0.35281894  0.65133928  1
  N  N368  1  0.39204616  0.43997044  0.66610697  1
  C  C369  1  0.20130862  0.31514133  0.64626276  1
  N  N370  1  0.36874131  0.27788927  0.56352637  1
  H  H371  1  0.31415527  0.45097591  0.63178634  1
  C  C372  1  0.19518593  0.29060568  0.72341257  1
  H  H373  1  0.31922424  0.36869271  0.65520769  1
  H  H374  1  0.08303361  0.32508245  0.53377359  1
  O  O375  1  0.01562801  0.48949127  0.53019623  1
  C  C376  1  0.11347164  0.40677760  0.55600666  1
  H  H377  1  0.40602359  0.41538371  0.68392582  1
  Cu  Cu378  1  0.29145011  0.29072985  0.59048359  1
  C  C379  1  0.35668688  0.27193478  0.70527577  1
  H  H380  1  0.18826960  0.32338049  0.73325156  1
  C  C381  1  0.41262373  0.28299514  0.71005516  1
  C  C382  1  0.34973732  0.42892493  0.63627739  1
  C  C383  1  0.43040961  0.28360046  0.55599013  1
  C  C384  1  0.19707515  0.38953735  0.51418954  1
  C  C385  1  0.41621684  0.44744996  0.62673495  1
  O  O386  1  0.24928135  0.27269017  0.54481157  1
  H  H387  1  0.15338893  0.27955618  0.71223282  1
  Cu  Cu388  1  0.17332679  0.39046241  0.61416398  1
  C  C389  1  0.44072844  0.37740138  0.74711989  1
  C  C390  1  0.41112166  0.49428258  0.61535192  1
  C  C391  1  0.05967492  0.42775013  0.51235311  1
  O  O392  1  0.45710516  0.31090432  0.57151611  1
  H  H393  1  0.21514283  0.41930118  0.52561679  1
  N  N394  1  0.28213516  0.31631269  0.70241966  1
  C  C395  1  0.33609298  0.38581036  0.62757390  1
  O  O396  1  0.42554657  0.37599895  0.71158073  1
  O  O397  1  0.30095843  0.34871527  0.57330444  1
  C  C398  1  0.44912037  0.26888717  0.51059118  1
  O  O399  1  0.08875795  0.26198084  0.50101968  1
  C  C400  1  0.42212960  0.46970775  0.50129449  1
  H  H401  1  0.03445302  0.15649260  0.95299811  1
  N  N402  1  0.07267708  0.15891324  0.96833052  1
  C  C403  1  0.10952023  0.13161598  0.94854422  1
  Cu  Cu404  1  0.08971263  0.04182633  0.77517111  1
  C  C405  1  0.15595951  0.12287312  0.98134048  1
  O  O406  1  0.11296717  0.12189364  0.91404014  1
  Cu  Cu407  1  0.19284026  0.18048386  0.78238883  1
  H  H408  1  0.04915198  0.06726890  0.91294533  1
  C  C409  1  0.20721674  0.11161945  0.96479006  1
  H  H410  1  0.21475616  0.10922229  0.93293363  1
  O  O411  1  0.21811944  0.19890997  0.83306673  1
  H  H412  1  0.28812759  0.12979173  0.81459370  1
  C  C413  1  0.25384753  0.17764136  0.85179833  1
  H  H414  1  0.34354253  0.14150216  0.88067769  1
  C  C415  1  0.29948202  0.16015761  0.82798597  1
  O  O416  1  0.25494231  0.17250312  0.88855351  1
  C  C417  1  0.35356470  0.15713835  0.85044861  1
  H  H418  1  0.38251206  0.13635525  0.83367897  1
  O  O419  1  0.43790491  0.19068941  0.85943929  1
  N  N420  1  0.30487459  0.17914293  0.78683937  1
  C  C421  1  0.38959771  0.19738825  0.85889118  1
  O  O422  1  0.34364151  0.13010599  0.96786672  1
  O  O423  1  0.16097101  0.04316925  0.80505179  1
  H  H424  1  0.36863335  0.18690401  0.99302524  1
  H  H425  1  0.20671955  0.06109171  0.88191163  1
  H  H426  1  0.30231088  0.20936963  0.78283987  1
  O  O427  1  0.05425111  0.05444507  0.81943273  1
  C  C428  1  0.35433511  0.16793395  0.76535631  1
  N  N429  1  0.20626719  0.03004038  0.88955251  1
  H  H430  1  0.18340695  0.02150987  0.95282928  1
  O  O431  1  0.09007643  0.01337970  0.94976401  1
  O  O432  1  0.30499986  0.02781329  0.87683913  1
  Cu  Cu433  1  0.27490277  0.21881067  0.91373857  1
  O  O434  1  0.36850785  0.23413304  0.86149134  1
  C  C435  1  0.18917547  0.01259810  0.81500487  1
  C  C436  1  0.09541042  0.20128034  0.97090542  1
  C  C437  1  0.26550291  0.02258753  0.89716824  1
  H  H438  1  0.42292184  0.08787340  0.98147217  1
  O  O439  1  0.07281275  0.21046636  0.81612002  1
  C  C440  1  0.31326185  0.10648079  0.98337094  1
  H  H441  1  0.09622181  0.18744987  0.90662963  1
  H  H442  1  0.13213591  0.19645039  0.98988739  1
  C  C443  1  0.10360412  0.21536685  0.92752630  1
  O  O444  1  0.20009598  0.22768994  0.93472893  1
  H  H445  1  0.09881727  0.01169931  0.86920508  1
  C  C446  1  0.15647468  0.23602787  0.91584673  1
  O  O447  1  0.45652764  0.03900936  0.90266183  1
  C  C448  1  0.21930358  0.00180078  0.96335730  1
  C  C449  1  0.04823391  0.22644375  0.99595384  1
  C  C450  1  0.18492051  0.00145684  0.85914412  1
  C  C451  1  0.25009686  0.11269535  0.99454269  1
  N  N452  1  0.32277862  0.06617508  0.99706505  1
  C  C453  1  0.07233139  0.24626438  0.80828442  1
  H  H454  1  0.13672479  0.02947087  0.99601132  1
  H  H455  1  0.06610068  0.23561374  0.91962792  1
  C  C456  1  0.00851378  0.03955337  0.83222872  1
  C  C457  1  0.00404884  0.05951098  0.90753652  1
  O  O458  1  0.21592860  0.22667265  0.75142046  1
  H  H459  1  0.46359513  0.19690699  0.75940256  1
  O  O460  1  0.10846694  0.11602275  0.75724550  1
  O  O461  1  0.37926582  0.13611029  0.76654398  1
  H  H462  1  0.39321430  0.47891883  0.91778703  1
  O  O463  1  0.44045076  0.40768270  0.76788241  1
  C  C464  1  0.42461015  0.40872467  0.97320453  1
  Cu  Cu465  1  0.18140933  0.27317470  0.84115099  1
  O  O466  1  0.36616208  0.41540898  0.86763363  1
  C  C467  1  0.21219061  0.26450252  0.75763788  1
  H  H468  1  0.03129772  0.32149891  0.81581401  1
  H  H469  1  0.32591182  0.47583537  0.93559610  1
  O  O470  1  0.39362528  0.26097129  0.93985128  1
  C  C471  1  0.35047942  0.26349865  0.95947326  1
  O  O472  1  0.30135405  0.26283028  0.94726315  1
  O  O473  1  0.02915230  0.25552828  0.98039378  1
  H  H474  1  0.01583334  0.27137168  0.86292540  1
  C  C475  1  0.01932575  0.26403394  0.78198440  1
  O  O476  1  0.32099067  0.38772087  0.91838571  1
  O  O477  1  0.01422301  0.46786289  0.96464387  1
  H  H478  1  0.17525509  0.49368455  0.99015060  1
  O  O479  1  0.02188586  0.40851618  0.99371543  1
  C  C480  1  0.38304428  0.44111730  0.97032448  1
  H  H481  1  0.44180210  0.30923962  0.77548493  1
  C  C482  1  0.47028509  0.33369265  0.76430487  1
  C  C483  1  0.36268425  0.45743593  0.92931366  1
  H  H484  1  0.03307964  0.27452565  0.75323346  1
  O  O485  1  0.02351012  0.34604019  0.88157344  1
  O  O486  1  0.11398663  0.27084110  0.81386455  1
  C  C487  1  0.47309821  0.31980011  0.84038896  1
  O  O488  1  0.40683536  0.37310516  0.96958770  1
  O  O489  1  0.49179741  0.32670658  0.87359060  1
  C  C490  1  0.34871611  0.41778570  0.90106724  1
  O  O491  1  0.43125483  0.29547274  0.83590031  1
  Cu  Cu492  1  0.40548464  0.27858055  0.88616305  1
  Cu  Cu493  1  0.32366926  0.37194389  0.97295098  1
  O  O494  1  0.47690872  0.41679375  0.97227213  1
  O  O495  1  0.15294290  0.26704566  0.89383787  1
  O  O496  1  0.22067986  0.28193846  0.79166251  1
  C  C497  1  0.14120264  0.52455088  0.04130573  1
  N  N498  1  0.08503296  0.54097081  0.03570846  1
  Cu  Cu499  1  0.20966868  0.61756682  0.07798723  1
  C  C500  1  0.12390093  0.61830542  0.13603734  1
  O  O501  1  0.08742003  0.63736833  0.12049696  1
  N  N502  1  0.08422005  0.58112593  0.20186739  1
  H  H503  1  0.09517965  0.63780424  0.20393486  1
  C  C504  1  0.12068076  0.61563417  0.18621486  1
  C  C505  1  0.18105655  0.61109344  0.19567237  1
  O  O506  1  0.17504856  0.59149673  0.03798196  1
  O  O507  1  0.16142624  0.59728720  0.11765446  1
  H  H508  1  0.20791499  0.62094085  0.17077805  1
  H  H509  1  0.09393813  0.57301242  0.23078486  1
  H  H510  1  0.07950272  0.56994457  0.04557085  1
  H  H511  1  0.22379078  0.53703183  0.13782334  1
  C  C512  1  0.04842036  0.51988528  0.06390818  1
  N  N513  1  0.18659392  0.70599479  0.04835358  1
  C  C514  1  0.24308186  0.71424265  0.05884219  1
  N  N515  1  0.25883822  0.52903759  0.12332281  1
  O  O516  1  0.26654414  0.64058784  0.04276585  1
  C  C517  1  0.28607608  0.67790327  0.05015631  1
  C  C518  1  0.18392712  0.55518195  0.02855012  1
  H  H519  1  0.15495108  0.70823094  0.07112825  1
  C  C520  1  0.29926751  0.55987159  0.11643660  1
  O  O521  1  0.30155679  0.59237967  0.13149321  1
  O  O522  1  0.33346413  0.68322409  0.05574341  1
  O  O523  1  0.44802600  0.63566930  0.04981603  1
  H  H524  1  0.37715113  0.61157280  0.08259828  1
  C  C525  1  0.33782838  0.54933086  0.08028575  1
  C  C526  1  0.37464468  0.58025207  0.06832955  1
  C  C527  1  0.45707200  0.60328586  0.03231839  1
  C  C528  1  0.41532105  0.56956942  0.03941896  1
  C  C529  1  0.41562201  0.53186447  0.01974437  1
  H  H530  1  0.13795834  0.51953564  0.07557199  1
  H  H531  1  0.18965739  0.57774926  0.19834184  1
  H  H532  1  0.05865844  0.52713660  0.14771032  1
  C  C533  1  0.03276204  0.55061462  0.13316398  1
  O  O534  1  0.22547731  0.71522818  0.15413628  1
  Cu  Cu535  1  0.17163251  0.71359336  0.19800651  1
  H  H536  1  0.30098650  0.72311537  0.10586513  1
  C  C537  1  0.20153317  0.63293284  0.23206376  1
  C  C538  1  0.02674865  0.58886245  0.20289850  1
  C  C539  1  0.26245873  0.73954509  0.09336197  1
  C  C540  1  0.22347908  0.74365346  0.12896328  1
  C  C541  1  0.33429846  0.51228006  0.06127497  1
  O  O542  1  0.10488757  0.71063446  0.23103975  1
  C  C543  1  0.05597186  0.71323668  0.21578566  1
  C  C544  1  0.01661889  0.55077240  0.09250261  1
  C  C545  1  0.19855677  0.74208398  0.02366881  1
  O  O546  1  0.21046388  0.67078376  0.22829347  1
  O  O547  1  0.04422317  0.72848886  0.18389350  1
  H  H548  1  0.34461467  0.50992246  0.18968828  1
  H  H549  1  0.36302438  0.51230677  0.13815213  1
  C  C550  1  0.00988635  0.58348170  0.15746244  1
  C  C551  1  0.37089239  0.50352411  0.02746569  1
  O  O552  1  0.48353339  0.59535784  0.23391271  1
  O  O553  1  0.23079662  0.54589730  0.01332114  1
  C  C554  1  0.00483914  0.69615653  0.24244152  1
  N  N555  1  0.49875310  0.58842365  0.00620604  1
  C  C556  1  0.18271367  0.98680703  0.03311442  1
  C  C557  1  0.26951683  0.95545191  0.00970820  1
  O  O558  1  0.02887910  0.95988045  0.18861528  1
  C  C559  1  0.22612062  0.98155380  0.00007448  1
  O  O560  1  0.18806255  0.77193866  0.12819173  1
  Cu  Cu561  1  0.14651474  0.79464131  0.08197486  1
  O  O562  1  0.01693598  0.98167913  0.06528769  1
  O  O563  1  0.13185138  0.87772949  0.01860161  1
  C  C564  1  0.04520514  0.78580653  0.04141937  1
  H  H565  1  0.27345713  0.77208857  0.08525491  1
  O  O566  1  0.35997551  0.94880118  0.14653008  1
  O  O567  1  0.19720993  0.96986351  0.06507585  1
  O  O568  1  0.34962979  0.90278422  0.01996171  1
  C  C569  1  0.36078365  0.79541572  0.09265559  1
  H  H570  1  0.47577850  0.91554566  0.19721424  1
  O  O571  1  0.33249335  0.81953156  0.07704655  1
  H  H572  1  0.13400976  0.95832444  0.07494855  1
  O  O573  1  0.07437847  0.80598143  0.06587251  1
  O  O574  1  0.01847896  0.75482309  0.05300205  1
  H  H575  1  0.27254419  0.93929099  0.04005815  1
  C  C576  1  0.06583388  0.98341090  0.07035444  1
  O  O577  1  0.09497613  0.95148283  0.08601031  1
  O  O578  1  0.39059591  0.77228764  0.10801888  1
  C  C579  1  0.38737281  0.91847934  0.15045127  1
  O  O580  1  0.41162049  0.88843932  0.15386676  1
  O  O581  1  0.18129652  0.77766045  0.03516148  1
  Cu  Cu582  1  0.37831787  0.85086691  0.00871476  1
  C  C583  1  0.15467172  0.63744919  0.39962358  1
  Cu  Cu584  1  0.19825635  0.62811782  0.32002480  1
  O  O585  1  0.19239852  0.64430645  0.37360759  1
  C  C586  1  0.26633171  0.55522419  0.32348946  1
  O  O587  1  0.25099400  0.59039975  0.34006538  1
  Cu  Cu588  1  0.10966736  0.57117994  0.35800706  1
  C  C589  1  0.10052468  0.73869880  0.43829818  1
  O  O590  1  0.13119600  0.60307438  0.40211383  1
  C  C591  1  0.14877858  0.66999283  0.43021889  1
  H  H592  1  0.18581032  0.68939841  0.42849534  1
  C  C593  1  0.09966261  0.69547259  0.42633091  1
  H  H594  1  0.15163426  0.65248520  0.46022158  1
  H  H595  1  0.43107210  0.57784198  0.39049290  1
  C  C596  1  0.12911790  0.51074844  0.30151815  1
  O  O597  1  0.09507971  0.53499018  0.31453423  1
  N  N598  1  0.18635063  0.51807873  0.29152918  1
  O  O599  1  0.30909031  0.54928735  0.30721220  1
  O  O600  1  0.42503521  0.63533616  0.33491153  1
  O  O601  1  0.20061605  0.61333517  0.26506733  1
  O  O602  1  0.03206669  0.57228426  0.37794350  1
  C  C603  1  0.41513754  0.53280760  0.45410439  1
  H  H604  1  0.38824849  0.55047012  0.43381805  1
  C  C605  1  0.22202070  0.51701429  0.32822933  1
  N  N606  1  0.05003863  0.67735224  0.41528461  1
  H  H607  1  0.03992879  0.72399473  0.36636987  1
  H  H608  1  0.19804694  0.52246859  0.35714970  1
  H  H609  1  0.48043913  0.66855315  0.47774614  1
  H  H610  1  0.05331058  0.64674766  0.41212178  1
  C  C611  1  0.05981242  0.62983258  0.31142809  1
  O  O612  1  0.29411975  0.55367657  0.43135660  1
  O  O613  1  0.08212984  0.65731635  0.31819240  1
  H  H614  1  0.19803951  0.54237460  0.27344476  1
  O  O615  1  0.03730222  0.52997758  0.42977330  1
  Cu  Cu616  1  0.08141044  0.54254342  0.47554955  1
  C  C617  1  0.01132640  0.54737246  0.40210563  1
  C  C618  1  0.47235920  0.53199254  0.44924943  1
  C  C619  1  0.47257214  0.62829533  0.34207042  1
  N  N620  1  0.47164910  0.57304290  0.39244311  1
  C  C621  1  0.31174228  0.52651534  0.45052905  1
  O  O622  1  0.47220051  0.72811612  0.27624602  1
  H  H623  1  0.48649705  0.73274746  0.34280599  1
  H  H624  1  0.01009492  0.68587489  0.42551560  1
  H  H625  1  0.48742356  0.67187974  0.30588941  1
  C  C626  1  0.19122289  0.72275532  0.48780390  1
  O  O627  1  0.08042208  0.59602474  0.49292724  1
  H  H628  1  0.01555184  0.66927888  0.26310164  1
  H  H629  1  0.02473341  0.72116132  0.31504431  1
  H  H630  1  0.06253606  0.67369969  0.48264415  1
  C  C631  1  0.03664759  0.75502747  0.37907700  1
  C  C632  1  0.00069679  0.78251097  0.36065505  1
  O  O633  1  0.48469473  0.91322128  0.40775201  1
  O  O634  1  0.13326201  0.75538821  0.46225277  1
  O  O635  1  0.39906840  0.93543136  0.40830440  1
  C  C636  1  0.37278660  0.87400326  0.30517758  1
  H  H637  1  0.44555118  0.91665104  0.25901422  1
  H  H638  1  0.45919336  0.89818557  0.33090535  1
  H  H639  1  0.35990117  0.94449259  0.34618058  1
  H  H640  1  0.48485127  0.94788714  0.33083730  1
  C  C641  1  0.00377596  0.87148003  0.43517069  1
  O  O642  1  0.32691415  0.84810964  0.44072159  1
  H  H643  1  0.07120327  0.81337602  0.46206710  1
  C  C644  1  0.16435963  0.96010340  0.30200914  1
  H  H645  1  0.07339803  0.98951218  0.25829699  1
  C  C646  1  0.00886395  0.87323896  0.47834672  1
  O  O647  1  0.30993757  0.98163319  0.41776003  1
  H  H648  1  0.32564047  0.91762047  0.29507995  1
  C  C649  1  0.01183178  0.83037246  0.41688209  1
  C  C650  1  0.42694386  0.85714919  0.28753030  1
  H  H651  1  0.40755091  0.82532051  0.44156441  1
  C  C652  1  0.39505116  0.94599008  0.32428176  1
  O  O653  1  0.39754838  0.99127699  0.26796171  1
  H  H654  1  0.38444760  0.86288085  0.39898480  1
  Cu  Cu655  1  0.38581564  0.98104039  0.43634409  1
  H  H656  1  0.41428513  0.79294810  0.30748815  1
  C  C657  1  0.45860609  0.88412162  0.26308085  1
  C  C658  1  0.44391003  0.92553470  0.39114465  1
  C  C659  1  0.40149924  0.98731512  0.30585876  1
  O  O660  1  0.17578734  0.94635023  0.27067366  1
  C  C661  1  0.05055776  0.80526440  0.43351878  1
  C  C662  1  0.48874760  0.80019261  0.27243145  1
  C  C663  1  0.44063971  0.81624197  0.29019240  1
  O  O664  1  0.44326283  0.76477921  0.40611300  1
  O  O665  1  0.33904239  0.85152266  0.31877281  1
  C  C666  1  0.37349777  0.84747032  0.42895384  1
  C  C667  1  0.48772722  0.77479200  0.39646816  1
  C  C668  1  0.06030661  0.76568509  0.41578448  1
  H  H669  1  0.04856344  0.92867436  0.48940614  1
  N  N670  1  0.36805998  0.91813088  0.29531753  1
  C  C671  1  0.44824939  0.92928121  0.34151679  1
  O  O672  1  0.15079367  0.97374317  0.33295057  1
  O  O673  1  0.21549102  0.70349223  0.63683054  1
  C  C674  1  0.26134871  0.68523725  0.63822189  1
  C  C675  1  0.26707093  0.64463740  0.65804676  1
  H  H676  1  0.23265668  0.62458459  0.64725437  1
  Cu  Cu677  1  0.33243613  0.72354727  0.57769944  1
  O  O678  1  0.30676531  0.70120909  0.62896276  1
  O  O679  1  0.27886208  0.55510425  0.66151149  1
  C  C680  1  0.31221555  0.57639216  0.64576266  1
  C  C681  1  0.36493893  0.56049257  0.62521733  1
  H  H682  1  0.40064521  0.61213846  0.59384740  1
  C  C683  1  0.40258618  0.57934670  0.59903246  1
  C  C684  1  0.44580874  0.55611563  0.58106171  1
  N  N685  1  0.45425047  0.60406069  0.52360388  1
  N  N686  1  0.31375053  0.62079221  0.64059532  1
  H  H687  1  0.41795274  0.58904004  0.52763822  1
  C  C688  1  0.41202499  0.67312839  0.53456359  1
  C  C689  1  0.42556025  0.62947931  0.69995711  1
  H  H690  1  0.35455233  0.62653236  0.64791630  1
  O  O691  1  0.38556043  0.68121510  0.56824700  1
  C  C692  1  0.46628982  0.64536988  0.53738616  1
  O  O693  1  0.45505701  0.62704833  0.66735082  1
  C  C694  1  0.45263651  0.69990294  0.71120689  1
  O  O695  1  0.39594323  0.59991848  0.71223504  1
  C  C696  1  0.42408606  0.66756786  0.72231954  1
  H  H697  1  0.07728367  0.66962262  0.53429795  1
  Cu  Cu698  1  0.17328574  0.72142358  0.68337810  1
  C  C699  1  0.26943090  0.64423620  0.70328307  1
  O  O700  1  0.17051485  0.66481444  0.69703836  1
  C  C701  1  0.04491474  0.66166457  0.51263501  1
  H  H702  1  0.29497393  0.67200230  0.71445086  1
  H  H703  1  0.29159326  0.61647752  0.71450382  1
  O  O704  1  0.04534993  0.71925603  0.58416263  1
  H  H705  1  0.48270941  0.63978022  0.56843707  1
  H  H706  1  0.47725327  0.69699825  0.68476210  1
  C  C707  1  0.20639126  0.64821271  0.72007758  1
  C  C708  1  0.48611531  0.57568415  0.54824914  1
  C  C709  1  0.03947267  0.61668253  0.50767421  1
  C  C710  1  0.44795223  0.51433434  0.58906595  1
  O  O711  1  0.22171932  0.70511223  0.50326547  1
  C  C712  1  0.37044468  0.51766640  0.63390144  1
  O  O713  1  0.39692197  0.68686241  0.50306143  1
  Cu  Cu714  1  0.42962955  0.55660532  0.74475792  1
  C  C715  1  0.03890889  0.54571366  0.67617278  1
  O  O716  1  0.08562443  0.55365031  0.67012957  1
  C  C717  1  0.00269159  0.70033975  0.57480911  1
  C  C718  1  0.45290460  0.74095718  0.73075713  1
  H  H719  1  0.34462944  0.50424506  0.65815185  1
  O  O720  1  0.14467834  0.74609347  0.73095244  1
  O  O721  1  0.00244466  0.71103201  0.68062456  1
  C  C722  1  0.00927195  0.74855250  0.67883412  1
  H  H723  1  0.39527671  0.66929067  0.74911109  1
  O  O724  1  0.30533533  0.83879056  0.73669239  1
  O  O725  1  0.47572097  0.77103843  0.71712443  1
  C  C726  1  0.10939028  0.99598355  0.54002222  1
  Cu  Cu727  1  0.22637151  0.84518436  0.72725851  1
  C  C728  1  0.00593279  0.83791380  0.50402712  1
  O  O729  1  0.44585422  0.96612634  0.58350511  1
  O  O730  1  0.48027983  0.98445299  0.52005606  1
  H  H731  1  0.18874433  0.89022842  0.54285858  1
  C  C732  1  0.28304135  0.95010333  0.64775399  1
  O  O733  1  0.04066604  0.93857011  0.57775598  1
  N  N734  1  0.25626971  0.89285547  0.57515913  1
  O  O735  1  0.03212813  0.78776086  0.55360002  1
  C  C736  1  0.22235678  0.87035846  0.55489576  1
  O  O737  1  0.36732709  0.98319101  0.73420463  1
  H  H738  1  0.08684131  0.97291072  0.52093068  1
  O  O739  1  0.04893452  0.76348889  0.65853439  1
  H  H740  1  0.02780062  0.82806828  0.68977072  1
  Cu  Cu741  1  0.03823141  0.77297063  0.60415658  1
  C  C742  1  0.07329943  0.95615384  0.59881176  1
  C  C743  1  0.06811973  0.91354917  0.66053103  1
  H  H744  1  0.08821077  0.89575285  0.63591355  1
  C  C745  1  0.46143567  0.97489078  0.55130140  1
  C  C746  1  0.28572260  0.80931825  0.57777031  1
  O  O747  1  0.31395366  0.83028188  0.59952747  1
  H  H748  1  0.26311703  0.92281924  0.66094188  1
  C  C749  1  0.33962709  0.96098383  0.71349172  1
  C  C750  1  0.26883069  0.96106924  0.60795376  1
  N  N751  1  0.01551231  0.91099357  0.50006247  1
  C  C752  1  0.10963658  0.99275195  0.58443788  1
  H  H753  1  0.09177759  0.94646019  0.71648646  1
  C  C754  1  0.23375833  0.93339214  0.57664152  1
  C  C755  1  0.14796743  0.89619138  0.70571921  1
  O  O756  1  0.15534107  0.85842903  0.70905746  1
  C  C757  1  0.24480865  0.82695121  0.54607850  1
  H  H758  1  0.06131673  0.89346081  0.72161657  1
  H  H759  1  0.02254087  0.90860743  0.53090776  1
  H  H760  1  0.29042075  0.87921616  0.58955965  1
  N  N761  1  0.08359486  0.95362900  0.64194759  1
  O  O762  1  0.20433877  0.95036857  0.55268361  1
  O  O763  1  0.08983091  0.83926058  0.54333528  1
  N  N764  1  0.31239725  0.92233017  0.72372625  1
  C  C765  1  0.09109255  0.91287392  0.70298635  1
  O  O766  1  0.28243782  0.77043346  0.58045933  1
  O  O767  1  0.18791583  0.92115583  0.70773046  1
  C  C768  1  0.32130117  0.97356251  0.67029928  1
  H  H769  1  0.31849356  0.90803262  0.69608657  1
  C  C770  1  0.04949757  0.82131917  0.53403224  1
  H  H771  1  0.12488736  0.96465169  0.64494891  1
  H  H772  1  0.26680541  0.82763683  0.51419696  1
  H  H773  1  0.20704942  0.80736804  0.53929534  1
  H  H774  1  0.00758541  0.75138430  0.51229458  1
  C  C775  1  0.00288332  0.90061054  0.66431059  1
  C  C776  1  0.28829998  0.99911989  0.59464250  1
  Cu  Cu777  1  0.20872500  0.96362643  0.74719486  1
  O  O778  1  0.21320167  0.78899440  0.74031927  1
  C  C779  1  0.21336710  0.68541613  0.92203707  1
  C  C780  1  0.22127815  0.64260434  0.90320693  1
  C  C781  1  0.21231964  0.69134287  0.96506101  1
  N  N782  1  0.19633720  0.61361961  0.93003154  1
  H  H783  1  0.11238864  0.61552189  0.83915530  1
  H  H784  1  0.20104976  0.58156542  0.92758057  1
  H  H785  1  0.21373700  0.70787000  0.86429813  1
  C  C786  1  0.20716713  0.71795520  0.89579778  1
  H  H787  1  0.12627453  0.65215989  0.92374642  1
  C  C788  1  0.14146557  0.62373683  0.93854976  1
  H  H789  1  0.12327630  0.56869974  0.97469672  1
  C  C790  1  0.10949710  0.59867121  0.96087592  1
  C  C791  1  0.09032508  0.63152713  0.81355253  1
  C  C792  1  0.05239438  0.60858453  0.96476452  1
  O  O793  1  0.12118318  0.69850891  0.82931068  1
  H  H794  1  0.12180007  0.62973704  0.78806785  1
  C  C795  1  0.20644736  0.73235553  0.97809065  1
  O  O796  1  0.24166152  0.63928541  0.87080218  1
  C  C797  1  0.29363344  0.54342195  0.91623046  1
  O  O798  1  0.30429116  0.54401354  0.95380195  1
  H  H799  1  0.29600922  0.73252113  0.90320309  1
  H  H800  1  0.34016679  0.52054367  0.84370549  1
  H  H801  1  0.30851659  0.59884836  0.87453430  1
  C  C802  1  0.39105624  0.57104091  0.82238663  1
  O  O803  1  0.37530883  0.56024426  0.78739522  1
  C  C804  1  0.36378103  0.54782210  0.85568811  1
  C  C805  1  0.33286608  0.57214137  0.88700913  1
  N  N806  1  0.37702022  0.59301176  0.91244018  1
  H  H807  1  0.41461381  0.60222149  0.89886885  1
  O  O808  1  0.42651290  0.59754251  0.82971830  1
  C  C809  1  0.45607709  0.65563925  0.92734660  1
  C  C810  1  0.40001235  0.65690214  0.93959629  1
  C  C811  1  0.36114583  0.62007302  0.94168202  1
  O  O812  1  0.31936704  0.62123987  0.96417202  1
  O  O813  1  0.03683760  0.64465516  0.94966216  1
  C  C814  1  0.08242143  0.67683030  0.82484730  1
  H  H815  1  0.40122260  0.53384025  0.87381716  1
  C  C816  1  0.37856308  0.69237099  0.95575374  1
  C  C817  1  0.46198620  0.72880673  0.94070766  1
  H  H818  1  0.33477068  0.69371355  0.96813751  1
  H  H819  1  0.47275636  0.62591937  0.91626664  1
  O  O820  1  0.35745874  0.71436624  0.84584234  1
  H  H821  1  0.06270579  0.55397930  0.83884386  1
  C  C822  1  0.03932395  0.60798444  0.80347607  1
  C  C823  1  0.40780207  0.72975506  0.95425303  1
  Cu  Cu824  1  0.48600149  0.60986933  0.79458802  1
  O  O825  1  0.03173597  0.68705079  0.83178882  1
  C  C826  1  0.48546127  0.69169913  0.92602958  1
  N  N827  1  0.03248874  0.56826149  0.82072340  1
  O  O828  1  0.01623334  0.58587640  0.98117594  1
  H  H829  1  0.21716592  0.66536017  0.98515542  1
  Cu  Cu830  1  0.28032024  0.58380982  0.99160093  1
  O  O831  1  0.25789141  0.52498919  0.89968548  1
  O  O832  1  0.46795574  0.51232372  0.77404049  1
  O  O833  1  0.12187038  0.53454350  0.87187969  1
  H  H834  1  0.04230322  0.73661816  0.97395128  1
  H  H835  1  0.02213359  0.61027501  0.77361823  1
  O  O836  1  0.19228565  0.63568371  0.75357877  1
  Cu  Cu837  1  0.01213684  0.52716944  0.97366985  1
  O  O838  1  0.12413198  0.51663085  0.94117072  1
  H  H839  1  0.14777318  0.74429095  0.83753143  1
  O  O840  1  0.42313329  0.74523705  0.76487792  1
  O  O841  1  0.47590732  0.52156074  0.93130086  1
  C  C842  1  0.35747168  0.74914635  0.85625937  1
  C  C843  1  0.12340312  0.52556673  0.90637297  1
  H  H844  1  0.44893606  0.52450633  0.99760670  1
  H  H845  1  0.18083800  0.79556308  0.96305931  1
  O  O846  1  0.22317739  0.99772840  0.79077959  1
  C  C847  1  0.26617374  0.99981883  0.93760675  1
  O  O848  1  0.02753080  0.84784432  0.77152495  1
  H  H849  1  0.43947024  0.98273501  0.87344747  1
  Cu  Cu850  1  0.00158289  0.95637336  0.80207016  1
  H  H851  1  0.21569081  0.97608564  0.86553703  1
  Cu  Cu852  1  0.39507393  0.79359061  0.78271761  1
  C  C853  1  0.19300348  0.75774613  0.90900036  1
  H  H854  1  0.02929409  0.83995830  0.80141554  1
  C  C855  1  0.43326229  0.94862777  0.93407513  1
  C  C856  1  0.35860716  0.92546027  0.99138285  1
  C  C857  1  0.31109154  0.76252277  0.88938644  1
  O  O858  1  0.41796144  0.89469979  0.88232374  1
  C  C859  1  0.16561317  0.77455757  0.75033753  1
  H  H860  1  0.11166047  0.82147708  0.76516943  1
  H  H861  1  0.12797311  0.96938488  0.90073063  1
  C  C862  1  0.10596171  0.95166122  0.83866795  1
  C  C863  1  0.04694468  0.99998673  0.93844239  1
  O  O864  1  0.18330958  0.82922879  0.89293581  1
  C  C865  1  0.40768696  0.91815063  0.96378352  1
  H  H866  1  0.09430954  0.77210380  0.78989304  1
  C  C867  1  0.31492775  0.97813440  0.94626713  1
  C  C868  1  0.33977770  0.90451474  0.76019433  1
  H  H869  1  0.30185562  0.78977455  0.98294131  1
  O  O870  1  0.40687354  0.80057634  0.98513308  1
  C  C871  1  0.04484058  0.86703651  0.92948627  1
  C  C872  1  0.42598801  0.93002868  0.88983961  1
  O  O873  1  0.25988946  0.91394261  0.84943022  1
  C  C874  1  0.12906641  0.79359586  0.78167456  1
  C  C875  1  0.01101441  0.89039404  0.90505853  1
  H  H876  1  0.27583601  0.77760626  0.87475589  1
  N  N877  1  0.32393288  0.76928946  0.96457249  1
  H  H878  1  0.37257766  0.80222215  0.91791772  1
  O  O879  1  0.22297566  0.91554740  0.78900264  1
  O  O880  1  0.42741783  0.95908952  0.85683239  1
  H  H881  1  0.47752274  0.95204591  0.93865761  1
  C  C882  1  0.33060198  0.78945474  0.92365752  1
  N  N883  1  0.09519599  0.81729842  0.98569373  1
  Cu  Cu884  1  0.22620982  0.87136590  0.87156072  1
  C  C885  1  0.32163558  0.92744839  0.79533438  1
  C  C886  1  0.00972286  0.93434611  0.90704499  1
  H  H887  1  0.41447103  0.97968430  0.93959651  1
  O  O888  1  0.11385403  0.91600767  0.84379792  1
  C  C889  1  0.33094501  0.85870560  0.76250629  1
  C  C890  1  0.29388982  0.82959467  0.92785365  1
  H  H891  1  0.34859834  0.97728242  0.92566562  1
  H  H892  1  0.09240986  0.94503737  0.98954824  1
  H  H893  1  0.45146603  0.87146860  0.94538818  1
  H  H894  1  0.32335043  0.96024639  0.79073107  1
  C  C895  1  0.04205968  0.95223568  0.93657442  1
  N  N896  1  0.42236444  0.88065212  0.96508545  1
  C  C897  1  0.07188855  0.88521888  0.96252664  1
  C  C898  1  0.07006073  0.92768540  0.96533803  1
  C  C899  1  0.26275526  0.91709932  0.81167720  1
  O  O900  1  0.28268487  0.84102961  0.96072243  1
  C  C901  1  0.02044058  0.76693710  0.96892410  1
  N  N902  1  0.15642201  0.77699162  0.84477910  1
  H  H903  1  0.15899731  0.83997906  0.82825645  1
  C  C904  1  0.31401710  0.95473931  0.98148682  1
  O  O905  1  0.28878944  0.84949139  0.89418617  1
  C  C906  1  0.17901589  0.79221523  0.88005790  1
  H  H907  1  0.35091384  0.92342287  0.82224556  1
  H  H908  1  0.04874134  0.83207610  0.92574026  1
  C  C909  1  0.38262746  0.77104800  0.96877334  1
  O  O910  1  0.35777675  0.84156168  0.78999002  1
  O  O911  1  0.38643029  0.77827942  0.83964037  1
  C  C912  1  0.19657319  0.76563954  0.95156999  1
  C  C913  1  0.12920115  0.98519398  0.87108131  1
  H  H914  1  0.03300772  0.77685735  0.93709780  1
  O  O915  1  0.07413863  0.96794312  0.81052076  1
  C  C916  1  0.15329097  0.80794414  0.81995364  1
  H  H917  1  0.48695798  0.75826377  0.93798992  1
  C  C918  1  0.00529771  0.81235382  0.75500705  1
  C  C919  1  0.10209504  0.86031984  0.99542699  1
  H  H920  1  0.01743647  0.82656020  0.99240558  1
  C  C921  1  0.04157254  0.79837785  0.99766026  1
  H  H922  1  0.12928789  0.80262817  0.99642567  1
  H  H923  1  0.38482153  0.91118846  0.75384232  1
  H  H924  1  0.67353978  0.12315282  0.06510771  1
  N  N925  1  0.66261140  0.13630885  0.09165998  1
  C  C926  1  0.61501149  0.16374342  0.08539056  1
  H  H927  1  0.61837833  0.18794389  0.11138231  1
  C  C928  1  0.55825189  0.13493197  0.08654570  1
  C  C929  1  0.62226206  0.18519516  0.04402591  1
  O  O930  1  0.53901190  0.12776339  0.05176792  1
  O  O931  1  0.54046377  0.12231169  0.11757329  1
  H  H932  1  0.63199991  0.09730940  0.14786646  1
  C  C933  1  0.65646544  0.11651875  0.16968252  1
  C  C934  1  0.65301451  0.10656145  0.21097706  1
  N  N935  1  0.64078231  0.03109641  0.21182590  1
  H  H936  1  0.67483193  0.04266683  0.19753368  1
  C  C937  1  0.69178346  0.14931193  0.15753901  1
  C  C938  1  0.70650733  0.15696353  0.11321448  1
  C  C939  1  0.72437376  0.17384258  0.18267478  1
  O  O940  1  0.74714774  0.17295858  0.09936655  1
  C  C941  1  0.72890670  0.05564846  0.10263349  1
  H  H942  1  0.75216454  0.20000055  0.17395543  1
  H  H943  1  0.76608254  0.11412484  0.12608321  1
  C  C944  1  0.77768957  0.08141574  0.12257897  1
  H  H945  1  0.86421282  0.08629567  0.12252558  1
  O  O946  1  0.82091989  0.07282582  0.03201617  1
  C  C947  1  0.82491479  0.07105652  0.18862459  1
  N  N948  1  0.77360802  0.07171903  0.16767227  1
  C  C949  1  0.83265190  0.07509051  0.10157697  1
  C  C950  1  0.84410127  0.09069611  0.06059138  1
  O  O951  1  0.88366951  0.11649550  0.05723692  1
  C  C952  1  0.85418790  0.02980139  0.17985343  1
  H  H953  1  0.74986830  0.09285647  0.18280125  1
  Cu  Cu954  1  0.92980755  0.10886493  0.01454233  1
  C  C955  1  0.90580893  0.02215953  0.19875980  1
  H  H956  1  0.83799982  0.04082599  0.10113537  1
  Cu  Cu957  1  0.77887348  0.02788532  0.02892372  1
  O  O958  1  0.72294192  0.05169072  0.06597852  1
  O  O959  1  0.69845053  0.03576027  0.12581962  1
  C  C960  1  0.62332500  0.06901978  0.23190135  1
  O  O961  1  0.84683979  0.09832573  0.20692140  1
  H  H962  1  0.92072963  0.04767175  0.21829985  1
  C  C963  1  0.72059452  0.16051709  0.22392397  1
  H  H964  1  0.64886338  0.21291198  0.04957385  1
  H  H965  1  0.57819261  0.19773286  0.03745337  1
  H  H966  1  0.78787128  0.00518729  0.14349649  1
  C  C967  1  0.68691102  0.12939727  0.23764101  1
  O  O968  1  0.77063215  0.22023460  0.24648993  1
  O  O969  1  0.63946756  0.12343533  0.01173153  1
  C  C970  1  0.64065102  0.16228546  0.00834897  1
  O  O971  1  0.51101081  0.00779988  0.19138513  1
  O  O972  1  0.51004207  0.00489541  0.12371457  1
  O  O973  1  0.99515817  0.10919754  0.04647630  1
  C  C974  1  0.50277662  0.24019912  0.17794361  1
  O  O975  1  0.54787668  0.24624192  0.19102507  1
  Cu  Cu976  1  0.57426594  0.09397059  0.01419452  1
  N  N977  1  0.99860745  0.00100518  0.24426230  1
  H  H978  1  0.95900503  0.01433124  0.24981595  1
  O  O979  1  0.51191582  0.06592721  0.00078603  1
  O  O980  1  0.56297334  0.46013346  0.00761945  1
  O  O981  1  0.71514262  0.31374734  0.24703524  1
  C  C982  1  0.53227703  0.26397580  0.10837649  1
  C  C983  1  0.52535287  0.26121440  0.06554489  1
  H  H984  1  0.67978114  0.32662771  0.03268387  1
  H  H985  1  0.69661372  0.43121828  0.22435617  1
  C  C986  1  0.98085141  0.33418238  0.08200610  1
  O  O987  1  0.72313988  0.48717944  0.07859258  1
  C  C988  1  0.76461791  0.49285574  0.06141700  1
  C  C989  1  0.85132238  0.45070084  0.13018288  1
  O  O990  1  0.97672417  0.26090892  0.08591074  1
  C  C991  1  0.75635455  0.35860585  0.13445089  1
  O  O992  1  0.52149032  0.49002362  0.05589697  1
  C  C993  1  0.95172161  0.29380673  0.07851387  1
  C  C994  1  0.85843214  0.49570631  0.14187677  1
  N  N995  1  0.95871126  0.36406454  0.05281131  1
  C  C996  1  0.73853635  0.37368362  0.20298642  1
  C  C997  1  0.54756282  0.49321839  0.02522664  1
  C  C998  1  0.80330415  0.42757015  0.13605542  1
  H  H999  1  0.78179368  0.36314278  0.19829635  1
  C  C1000  1  0.85773530  0.36675553  0.11537526  1
  N  N1001  1  0.72168135  0.38170626  0.16003513  1
  H  H1002  1  0.94521561  0.47628598  0.03313631  1
  H  H1003  1  0.57000378  0.27595937  0.12419642  1
  C  C1004  1  0.63459336  0.33475771  0.02603412  1
  H  H1005  1  0.58078746  0.45792807  0.23250967  1
  H  H1006  1  0.92498909  0.42246946  0.02702138  1
  C  C1007  1  0.95331289  0.35220967  0.23790814  1
  O  O1008  1  0.84585781  0.38721284  0.01109751  1
  C  C1009  1  0.73750854  0.41381758  0.22746081  1
  H  H1010  1  0.68121103  0.37190129  0.15875902  1
  C  C1011  1  0.69511587  0.33644273  0.21896302  1
  O  O1012  1  0.57328117  0.38653696  0.05264040  1
  H  H1013  1  0.95621531  0.32459193  0.21647617  1
  H  H1014  1  0.79525538  0.48292030  0.17538552  1
  H  H1015  1  0.98833849  0.37602575  0.03311461  1
  C  C1016  1  0.62102713  0.37464334  0.04057668  1
  H  H1017  1  0.85429599  0.46616045  0.00392934  1
  O  O1018  1  0.74410391  0.32739212  0.11839124  1
  H  H1019  1  0.59420383  0.30648395  0.08091473  1
  C  C1020  1  0.96228875  0.37527514  0.09567780  1
  N  N1021  1  0.60734245  0.30210274  0.05087201  1
  O  O1022  1  0.65701731  0.48783674  0.20363144  1
  O  O1023  1  0.92340136  0.42494177  0.22978942  1
  O  O1024  1  0.66055995  0.39883745  0.03683055  1
  H  H1025  1  0.76682249  0.43443176  0.21267018  1
  C  C1026  1  0.90454328  0.39066536  0.10883127  1
  O  O1027  1  0.65191771  0.33323940  0.20427074  1
  O  O1028  1  0.90386090  0.29438271  0.06336775  1
  C  C1029  1  0.90723824  0.38776816  0.22835597  1
  C  C1030  1  0.80828010  0.38558632  0.12707574  1
  H  H1031  1  0.99358776  0.36648574  0.23632261  1
  C  C1032  1  0.90003248  0.43344032  0.11480472  1
  C  C1033  1  0.56655436  0.27591204  0.03315085  1
  H  H1034  1  0.76200805  0.44033056  0.14748818  1
  O  O1035  1  0.86407316  0.37633870  0.21553461  1
  C  C1036  1  0.93957259  0.45029311  0.01180436  1
  H  H1037  1  0.85751577  0.33291666  0.11394364  1
  H  H1038  1  0.97030789  0.42433571  0.15934048  1
  Cu  Cu1039  1  0.87853573  0.34237926  0.03961417  1
  H  H1040  1  0.93697919  0.45296364  0.10588890  1
  Cu  Cu1041  1  0.52605573  0.40693492  0.01191384  1
  C  C1042  1  0.60763340  0.06759733  0.46782415  1
  C  C1043  1  0.59861495  0.10217639  0.44314913  1
  C  C1044  1  0.58872250  0.13913363  0.46301311  1
  C  C1045  1  0.58517822  0.17881396  0.43757390  1
  H  H1046  1  0.60456261  0.09893516  0.40995381  1
  O  O1047  1  0.56857001  0.17801103  0.40328915  1
  H  H1048  1  0.66499136  0.16837706  0.47021168  1
  C  C1049  1  0.66389732  0.20280745  0.47319181  1
  H  H1050  1  0.74920353  0.18650569  0.31998996  1
  O  O1051  1  0.76460916  0.16351786  0.44661822  1
  H  H1052  1  0.81250143  0.15611002  0.35042059  1
  C  C1053  1  0.76873381  0.09041230  0.31298085  1
  H  H1054  1  0.86473609  0.12638806  0.32772100  1
  C  C1055  1  0.86577638  0.19117129  0.31418257  1
  C  C1056  1  0.79104213  0.13924470  0.29002981  1
  C  C1057  1  0.83373761  0.15182566  0.31974328  1
  O  O1058  1  0.91800338  0.19026093  0.31636337  1
  C  C1059  1  0.61853996  0.02844289  0.44263188  1
  C  C1060  1  0.74801963  0.19082731  0.42620336  1
  N  N1061  1  0.74282048  0.16799389  0.29498658  1
  N  N1062  1  0.60765985  0.21128726  0.46196081  1
  H  H1063  1  0.68378256  0.12136980  0.27147294  1
  O  O1064  1  0.74047407  0.07021451  0.28954206  1
  O  O1065  1  0.78425326  0.08477066  0.34694467  1
  H  H1066  1  0.68451958  0.03707126  0.48320290  1
  H  H1067  1  0.84106216  0.20421648  0.46276501  1
  O  O1068  1  0.76327524  0.19914354  0.38905874  1
  H  H1069  1  0.92039068  0.18735042  0.45186605  1
  O  O1070  1  0.84149622  0.22309762  0.30450444  1
  H  H1071  1  0.80056431  0.13876638  0.25730059  1
  C  C1072  1  0.70139820  0.22304435  0.44267989  1
  Cu  Cu1073  1  0.95807905  0.23324920  0.33609967  1
  O  O1074  1  0.62531427  0.02961569  0.40497455  1
  O  O1075  1  0.95203506  0.21479422  0.39221221  1
  H  H1076  1  0.95528268  0.07964868  0.46631853  1
  C  C1077  1  0.94136252  0.21871630  0.46226138  1
  H  H1078  1  0.67892380  0.01781725  0.26190867  1
  O  O1079  1  0.58749333  0.07412075  0.25594154  1
  C  C1080  1  0.74883120  0.18605421  0.25670433  1
  H  H1081  1  0.59838256  0.23995681  0.45133307  1
  O  O1082  1  0.97919990  0.14015144  0.45265326  1
  C  C1083  1  0.67902375  0.00334774  0.47953002  1
  C  C1084  1  0.98432228  0.01785561  0.47011097  1
  Cu  Cu1085  1  0.68255719  0.00248429  0.37365116  1
  C  C1086  1  0.96862633  0.23205044  0.42356952  1
  N  N1087  1  0.84731859  0.23060221  0.47927512  1
  H  H1088  1  0.97859385  0.21283265  0.48223001  1
  O  O1089  1  0.96369200  0.00770966  0.43660482  1
  O  O1090  1  0.63795519  0.00988948  0.32559123  1
  Cu  Cu1091  1  0.83358848  0.24869020  0.25225703  1
  C  C1092  1  0.99334097  0.06230775  0.47699572  1
  H  H1093  1  0.72052342  0.24994393  0.45824344  1
  H  H1094  1  0.67727065  0.23266886  0.41439549  1
  O  O1095  1  0.58961003  0.24939256  0.32411575  1
  C  C1096  1  0.90293433  0.24562224  0.48450613  1
  H  H1097  1  0.78207193  0.49362283  0.44083072  1
  H  H1098  1  0.98011681  0.43038584  0.47682219  1
  N  N1099  1  0.98828331  0.35207340  0.30631672  1
  O  O1100  1  0.86472757  0.44754125  0.45969731  1
  O  O1101  1  0.89750226  0.28173796  0.25587003  1
  Cu  Cu1102  1  0.72233608  0.32700084  0.30258841  1
  C  C1103  1  0.94045318  0.34109043  0.27915819  1
  H  H1104  1  0.58616146  0.46045460  0.32532660  1
  Cu  Cu1105  1  0.78889738  0.48476039  0.31496015  1
  C  C1106  1  0.87213559  0.42048470  0.43799835  1
  O  O1107  1  0.74258311  0.28753662  0.40292438  1
  O  O1108  1  0.87867687  0.39126960  0.41665270  1
  C  C1109  1  0.54144483  0.41250304  0.47522025  1
  C  C1110  1  0.99267772  0.39419922  0.30726366  1
  C  C1111  1  0.57258315  0.47403958  0.26207643  1
  H  H1112  1  0.54041042  0.27159861  0.38096488  1
  O  O1113  1  0.58382495  0.46881571  0.41757400  1
  H  H1114  1  0.56546636  0.38380248  0.47879434  1
  O  O1115  1  0.95646885  0.42168597  0.31099617  1
  C  C1116  1  0.55559424  0.30746318  0.43459166  1
  C  C1117  1  0.71485419  0.46640666  0.38209228  1
  C  C1118  1  0.78443702  0.33296008  0.47262170  1
  C  C1119  1  0.80422200  0.29544210  0.48761228  1
  Cu  Cu1120  1  0.92302548  0.45950631  0.27705041  1
  H  H1121  1  0.65020771  0.45800041  0.29423800  1
  N  N1122  1  0.73991979  0.40920373  0.44190128  1
  H  H1123  1  0.75923015  0.46150431  0.48090095  1
  C  C1124  1  0.60248961  0.45142577  0.29414510  1
  C  C1125  1  0.92177812  0.29820800  0.28520179  1
  O  O1126  1  0.60900475  0.38204319  0.31753812  1
  C  C1127  1  0.74244216  0.35572008  0.49287329  1
  O  O1128  1  0.73650259  0.33739460  0.35886856  1
  Cu  Cu1129  1  0.79924529  0.25105614  0.38294428  1
  H  H1130  1  0.77211312  0.39319101  0.42844134  1
  H  H1131  1  0.51395264  0.38715942  0.42017814  1
  O  O1132  1  0.84921304  0.27510840  0.42172107  1
  C  C1133  1  0.71829033  0.39581485  0.47924227  1
  O  O1134  1  0.92202039  0.49581624  0.32227621  1
  O  O1135  1  0.52849462  0.44388414  0.37023429  1
  C  C1136  1  0.59049622  0.40233640  0.29005927  1
  C  C1137  1  0.51506940  0.41756302  0.43377196  1
  C  C1138  1  0.71457160  0.44950181  0.42856253  1
  C  C1139  1  0.61863433  0.29376198  0.37827276  1
  C  C1140  1  0.65681620  0.32294087  0.39905291  1
  C  C1141  1  0.54151216  0.44802306  0.40640710  1
  H  H1142  1  0.67159854  0.44093678  0.43722593  1
  O  O1143  1  0.67099730  0.47705442  0.36625255  1
  N  N1144  1  0.56753098  0.29096885  0.39672151  1
  H  H1145  1  0.79787200  0.33881610  0.44153064  1
  O  O1146  1  0.76058219  0.46801809  0.36640089  1
  H  H1147  1  0.91286844  0.36405049  0.29467248  1
  O  O1148  1  0.57824390  0.33021771  0.45787490  1
  O  O1149  1  0.68160197  0.27517766  0.31791862  1
  C  C1150  1  0.75055004  0.41075369  0.27133587  1
  O  O1151  1  0.74321168  0.44228443  0.29209569  1
  O  O1152  1  0.93437352  0.28291666  0.31918584  1
  O  O1153  1  0.76542450  0.37656674  0.28720447  1
  C  C1154  1  0.50561447  0.28368443  0.45120554  1
  H  H1155  1  0.65488952  0.32014665  0.43299997  1
  C  C1156  1  0.51325709  0.47290623  0.27101021  1
  H  H1157  1  0.66683665  0.25472557  0.29827339  1
  C  C1158  1  0.62074808  0.27207205  0.34067000  1
  C  C1159  1  0.84458657  0.27035508  0.46005358  1
  H  H1160  1  0.64472928  0.35747570  0.39223452  1
  C  C1161  1  0.71639159  0.31736372  0.38719189  1
  C  C1162  1  0.74408704  0.48062475  0.45578302  1
  N  N1163  1  0.57260342  0.44285981  0.49770383  1
  O  O1164  1  0.56177722  0.38833687  0.25849945  1
  C  C1165  1  0.64791399  0.10215942  0.63334790  1
  N  N1166  1  0.61990977  0.08516094  0.59501093  1
  H  H1167  1  0.62579187  0.13302327  0.63056759  1
  O  O1168  1  0.56673105  0.14720403  0.58474779  1
  C  C1169  1  0.56091043  0.09644380  0.66915696  1
  C  C1170  1  0.62533353  0.08111135  0.66918830  1
  H  H1171  1  0.62436646  0.04809059  0.66520711  1
  C  C1172  1  0.59241682  0.11623318  0.57419554  1
  H  H1173  1  0.64688786  0.06968001  0.57567489  1
  H  H1174  1  0.65020677  0.08853393  0.69938593  1
  O  O1175  1  0.72022495  0.13290634  0.60078227  1
  C  C1176  1  0.70693424  0.10891628  0.62995789  1
  O  O1177  1  0.69648290  0.18899092  0.54326237  1
  Cu  Cu1178  1  0.71009906  0.19214978  0.59934855  1
  O  O1179  1  0.74064244  0.09782155  0.65631065  1
  O  O1180  1  0.71634107  0.19993602  0.65686380  1
  C  C1181  1  0.76001772  0.20384026  0.67660082  1
  Cu  Cu1182  1  0.81099868  0.12193081  0.67381157  1
  Cu  Cu1183  1  0.78314653  0.07630864  0.56753757  1
  O  O1184  1  0.78471079  0.17470013  0.69333769  1
  O  O1185  1  0.84042026  0.09810389  0.59593875  1
  C  C1186  1  0.94822428  0.17459304  0.58258586  1
  C  C1187  1  0.92850091  0.04945308  0.56466090  1
  H  H1188  1  0.91022554  0.16824640  0.56406385  1
  O  O1189  1  0.85223423  0.07399057  0.65729363  1
  C  C1190  1  0.86863281  0.07827653  0.62114875  1
  C  C1191  1  0.91338949  0.04954884  0.60960359  1
  H  H1192  1  0.95225900  0.05505991  0.62771948  1
  N  N1193  1  0.94378335  0.09270200  0.55083372  1
  H  H1194  1  0.96913217  0.03794098  0.55301905  1
  C  C1195  1  0.94845563  0.21423280  0.60085130  1
  H  H1196  1  0.91257948  0.11279943  0.55791352  1
  C  C1197  1  0.87711524  0.03615226  0.53856431  1
  O  O1198  1  0.52732210  0.07189538  0.67945078  1
  O  O1199  1  0.54838781  0.13301846  0.65964139  1
  H  H1200  1  0.60437516  0.04094197  0.52675721  1
  C  C1201  1  0.59405365  0.10805524  0.52874457  1
  O  O1202  1  0.85666358  0.23489765  0.57749953  1
  O  O1203  1  0.72881604  0.05014917  0.54035578  1
  O  O1204  1  0.83979403  0.05890909  0.52835838  1
  C  C1205  1  0.67516044  0.21425687  0.51735719  1
  H  H1206  1  0.90018789  0.01835523  0.61744031  1
  C  C1207  1  0.71180149  0.01310923  0.55406464  1
  H  H1208  1  0.83560962  0.23931599  0.67508831  1
  C  C1209  1  0.99445076  0.22322292  0.62546132  1
  O  O1210  1  0.71931121  0.00472142  0.58894618  1
  O  O1211  1  0.91384558  0.19402468  0.69694198  1
  C  C1212  1  0.90434817  0.19444305  0.72840227  1
  Cu  Cu1213  1  0.50043276  0.14001053  0.61035026  1
  H  H1214  1  0.57194641  0.17246092  0.51915503  1
  C  C1215  1  0.99319454  0.14837913  0.58473933  1
  C  C1216  1  0.79076904  0.24376356  0.67971866  1
  C  C1217  1  0.89942046  0.24342837  0.59369682  1
  O  O1218  1  0.65739850  0.24737931  0.52385784  1
  C  C1219  1  0.99668053  0.10537335  0.56498674  1
  H  H1220  1  0.99841537  0.07145380  0.51038625  1
  C  C1221  1  0.60168339  0.06985889  0.51017451  1
  C  C1222  1  0.58534481  0.14281421  0.50525072  1
  H  H1223  1  0.78658592  0.25554753  0.71172241  1
  O  O1224  1  0.53074207  0.49446272  0.68336614  1
  N  N1225  1  0.89633520  0.49505788  0.74089044  1
  H  H1226  1  0.98565322  0.28018768  0.57320927  1
  C  C1227  1  0.78333530  0.28179941  0.52625152  1
  O  O1228  1  0.66375007  0.48998093  0.57096188  1
  C  C1229  1  0.62282792  0.40869100  0.72088372  1
  C  C1230  1  0.92206327  0.31948887  0.54665662  1
  Cu  Cu1231  1  0.52721230  0.43241124  0.59762079  1
  H  H1232  1  0.87585337  0.31190631  0.53814634  1
  O  O1233  1  0.59074203  0.40006957  0.74634157  1
  N  N1234  1  0.91430059  0.28062931  0.61142639  1
  H  H1235  1  0.51086803  0.31627538  0.50898763  1
  O  O1236  1  0.93221037  0.33982992  0.51803334  1
  C  C1237  1  0.76792543  0.27891650  0.65561731  1
  H  H1238  1  0.91526887  0.25334176  0.51581701  1
  H  H1239  1  0.99245842  0.25383501  0.64323266  1
  H  H1240  1  0.88706278  0.30582686  0.61048463  1
  O  O1241  1  0.65346625  0.41678223  0.69451447  1
  Cu  Cu1242  1  0.90004436  0.34000104  0.71492446  1
  C  C1243  1  0.72643046  0.29913865  0.59352197  1
  H  H1244  1  0.69729616  0.36391165  0.54988112  1
  C  C1245  1  0.50869454  0.27424237  0.73853621  1
  O  O1246  1  0.50571480  0.41624388  0.54578956  1
  O  O1247  1  0.88800580  0.40031183  0.71686912  1
  N  N1248  1  0.50634255  0.31692231  0.73213463  1
  C  C1249  1  0.74536755  0.30618307  0.54819734  1
  O  O1250  1  0.68327499  0.31249519  0.60420198  1
  H  H1251  1  0.90388999  0.48643154  0.71146327  1
  O  O1252  1  0.84295634  0.30962856  0.69730670  1
  C  C1253  1  0.72664149  0.34266316  0.53218237  1
  H  H1254  1  0.72334363  0.28489642  0.66392238  1
  H  H1255  1  0.54226913  0.33713978  0.73332505  1
  C  C1256  1  0.51856585  0.44051045  0.51637622  1
  H  H1257  1  0.61077412  0.43056062  0.50651624  1
  O  O1258  1  0.59826996  0.44668045  0.58556226  1
  C  C1259  1  0.95385810  0.30185023  0.58421595  1
  N  N1260  1  0.77036883  0.27482254  0.61058017  1
  C  C1261  1  0.62660183  0.47779657  0.59392345  1
  H  H1262  1  0.79834951  0.25159636  0.54105124  1
  O  O1263  1  0.81604636  0.34494773  0.64463544  1
  H  H1264  1  0.80938068  0.27654164  0.59920029  1
  C  C1265  1  0.81172294  0.31743752  0.66723415  1
  H  H1266  1  0.60369300  0.47271782  0.65719874  1
  C  C1267  1  0.99031200  0.33922250  0.60835907  1
  O  O1268  1  0.97113655  0.37889811  0.60647690  1
  H  H1269  1  0.93693418  0.37350300  0.58740386  1
  C  C1270  1  0.85911991  0.42176112  0.74190279  1
  C  C1271  1  0.61998002  0.49692463  0.63643395  1
  O  O1272  1  0.95356264  0.32236541  0.74783059  1
  O  O1273  1  0.54581662  0.25111954  0.74469164  1
  O  O1274  1  0.80959581  0.42137230  0.74618777  1
  O  O1275  1  0.68123632  0.40917862  0.50024481  1
  H  H1276  1  0.99581120  0.38256975  0.50163357  1
  H  H1277  1  0.82107948  0.19178722  0.91589094  1
  C  C1278  1  0.95780931  0.08786043  0.93298095  1
  H  H1279  1  0.93451892  0.05442250  0.86634738  1
  O  O1280  1  0.91374722  0.09584389  0.91728782  1
  O  O1281  1  0.72705021  0.18404369  0.92097667  1
  Cu  Cu1282  1  0.71518829  0.21216188  0.96911666  1
  N  N1283  1  0.82802654  0.22187497  0.90804215  1
  O  O1284  1  0.97979822  0.01315978  0.81426391  1
  C  C1285  1  0.93946370  0.19358078  0.85157263  1
  O  O1286  1  0.97028486  0.10173352  0.96805364  1
  O  O1287  1  0.91013671  0.18475998  0.82482321  1
  C  C1288  1  0.98081573  0.06184117  0.86519765  1
  O  O1289  1  0.64824430  0.18027016  0.97511071  1
  C  C1290  1  0.73229326  0.20447004  0.88745679  1
  H  H1291  1  0.84898887  0.23592864  0.83897141  1
  H  H1292  1  0.98400967  0.24092712  0.78132407  1
  H  H1293  1  0.78211383  0.22505561  0.81843154  1
  O  O1294  1  0.69967909  0.20703982  0.86122219  1
  H  H1295  1  0.98138168  0.09400638  0.85544786  1
  O  O1296  1  0.96872545  0.20012868  0.87910151  1
  C  C1297  1  0.80431026  0.24437094  0.84078656  1
  C  C1298  1  0.78085710  0.23842293  0.88369366  1
  O  O1299  1  0.54878747  0.01652128  0.90206029  1
  N  N1300  1  0.99690123  0.01785564  0.92453451  1
  C  C1301  1  0.50353901  0.02790816  0.90109983  1
  O  O1302  1  0.78271599  0.24561347  0.96735859  1
  C  C1303  1  0.88053626  0.35906120  0.95131851  1
  O  O1304  1  0.94315121  0.35975460  0.80173588  1
  C  C1305  1  0.84368479  0.32599934  0.95666992  1
  C  C1306  1  0.81371560  0.25201017  0.93836251  1
  C  C1307  1  0.55957369  0.49182647  0.78993781  1
  H  H1308  1  0.89882891  0.49836947  0.81763559  1
  O  O1309  1  0.56244507  0.26551354  0.99828371  1
  C  C1310  1  0.89751278  0.28947671  0.90768536  1
  C  C1311  1  0.99849497  0.29919029  0.80704781  1
  N  N1312  1  0.87325852  0.43405917  0.95778778  1
  H  H1313  1  0.90517824  0.26166712  0.88925810  1
  H  H1314  1  0.95228727  0.38655894  0.92151673  1
  Cu  Cu1315  1  0.66519468  0.43809153  0.99213007  1
  C  C1316  1  0.65752539  0.35792484  0.95043956  1
  C  C1317  1  0.99852956  0.44015482  0.98823954  1
  H  H1318  1  0.50501400  0.37880941  0.80696043  1
  C  C1319  1  0.98640082  0.32294084  0.87626511  1
  C  C1320  1  0.87191608  0.47239265  0.80593124  1
  C  C1321  1  0.50128455  0.34423309  0.80359255  1
  C  C1322  1  0.93380947  0.32211292  0.90372355  1
  H  H1323  1  0.93965188  0.44751170  0.76751877  1
  C  C1324  1  0.79891335  0.29164473  0.82522638  1
  H  H1325  1  0.57903474  0.33101081  0.97592550  1
  H  H1326  1  0.76652451  0.27059554  0.89025645  1
  O  O1327  1  0.82400303  0.45193794  0.86205018  1
  N  N1328  1  0.98612771  0.28704321  0.84939503  1
  O  O1329  1  0.75624677  0.30264577  0.81111689  1
  H  H1330  1  0.83001991  0.48508401  0.79794132  1
  O  O1331  1  0.76128099  0.47090236  0.94395688  1
  C  C1332  1  0.89474689  0.46568645  0.98565034  1
  C  C1333  1  0.89556467  0.45691659  0.76580725  1
  C  C1334  1  0.62565399  0.32778300  0.98193088  1
  C  C1335  1  0.71789613  0.49051538  0.93968006  1
  C  C1336  1  0.85148521  0.28985231  0.93457194  1
  O  O1337  1  0.67277442  0.47365367  0.95169037  1
  Cu  Cu1338  1  0.87729513  0.36137724  0.83671302  1
  H  H1339  1  0.56402890  0.47824529  0.75782041  1
  C  C1340  1  0.86691712  0.44460365  0.84209600  1
  C  C1341  1  0.92515540  0.36007300  0.92430824  1
  H  H1342  1  0.63802094  0.29523232  0.97641665  1
  O  O1343  1  0.84605790  0.31037328  0.82158192  1
  C  C1344  1  0.95814035  0.32621377  0.78524662  1
  Cu  Cu1345  1  0.63244578  0.43739638  0.91451796  1
  Cu  Cu1346  1  0.82060662  0.48069660  0.90817885  1
  O  O1347  1  0.62088352  0.47775616  0.87576190  1
  H  H1348  1  0.80951476  0.32912141  0.97923858  1
  C  C1349  1  0.86651622  0.39663450  0.97754781  1
  O  O1350  1  0.68778193  0.34644354  0.92434250  1
  O  O1351  1  0.64142250  0.39772278  0.95293666  1
  H  H1352  1  0.54522486  0.33243220  0.80286457  1
  C  C1353  1  0.64267373  0.48038211  0.84014049  1
  H  H1354  1  0.89263285  0.42564609  0.93175882  1
  O  O1355  1  0.89824051  0.41536526  0.85072951  1
  O  O1356  1  0.68339386  0.46135678  0.83163233  1
  H  H1357  1  0.54324899  0.46249855  0.80632783  1
  Cu  Cu1358  1  0.69777513  0.60870693  0.04142995  1
  N  N1359  1  0.68281781  0.67977331  0.13469352  1
  C  C1360  1  0.69270610  0.63909748  0.13298568  1
  O  O1361  1  0.71439890  0.61649223  0.10643743  1
  H  H1362  1  0.67073195  0.56192445  0.15031834  1
  O  O1363  1  0.62872288  0.58468905  0.05289857  1
  C  C1364  1  0.66386571  0.57831008  0.17810698  1
  C  C1365  1  0.67287187  0.62089552  0.17233335  1
  H  H1366  1  0.60771626  0.65814105  0.13866391  1
  C  C1367  1  0.57863797  0.59737114  0.05148991  1
  O  O1368  1  0.76135035  0.63956386  0.03440173  1
  C  C1369  1  0.60138042  0.70705329  0.08876893  1
  Cu  Cu1370  1  0.79011115  0.62286321  0.08612429  1
  O  O1371  1  0.81295519  0.59630253  0.13863792  1
  O  O1372  1  0.80732184  0.64246246  0.18674016  1
  O  O1373  1  0.78572588  0.72526435  0.09483283  1
  C  C1374  1  0.80388480  0.60751909  0.17580908  1
  C  C1375  1  0.79378026  0.57009467  0.20771845  1
  C  C1376  1  0.94972114  0.60835552  0.10403703  1
  C  C1377  1  0.90418203  0.63686074  0.08864879  1
  O  O1378  1  0.86647205  0.62521642  0.06678364  1
  N  N1379  1  0.91570822  0.67307247  0.10808381  1
  C  C1380  1  0.86984440  0.69756579  0.12826190  1
  H  H1381  1  0.84339326  0.67268874  0.14278794  1
  C  C1382  1  0.83323903  0.71937488  0.09127432  1
  H  H1383  1  0.95180216  0.66737230  0.12337721  1
  C  C1384  1  0.89925127  0.72480985  0.15717236  1
  H  H1385  1  0.93907368  0.71153239  0.16611973  1
  C  C1386  1  0.66618779  0.64618764  0.20765397  1
  H  H1387  1  0.74904102  0.55918941  0.20592807  1
  C  C1388  1  0.64588505  0.56132143  0.21523537  1
  H  H1389  1  0.87327130  0.54615217  0.18725319  1
  H  H1390  1  0.66980795  0.67944029  0.20578039  1
  C  C1391  1  0.83370441  0.53617628  0.20107440  1
  C  C1392  1  0.62026756  0.69121815  0.13257030  1
  H  H1393  1  0.69972666  0.69788681  0.11169129  1
  C  C1394  1  0.54091162  0.56776319  0.03277581  1
  O  O1395  1  0.56249705  0.62830653  0.07023123  1
  O  O1396  1  0.54749562  0.70982583  0.08414441  1
  O  O1397  1  0.63110535  0.71438677  0.06055263  1
  O  O1398  1  0.89550518  0.51607548  0.12903633  1
  H  H1399  1  0.94491516  0.63011169  0.16883909  1
  C  C1400  1  0.96701345  0.61013033  0.14587260  1
  H  H1401  1  0.96293138  0.57630467  0.04504120  1
  C  C1402  1  0.59952907  0.71856850  0.16597294  1
  H  H1403  1  0.57474591  0.69974037  0.18989578  1
  C  C1404  1  0.63444213  0.51471071  0.22045344  1
  C  C1405  1  0.97711762  0.57947347  0.07753476  1
  H  H1406  1  0.57063465  0.74090721  0.15410955  1
  H  H1407  1  0.87157684  0.72988349  0.18406190  1
  Cu  Cu1408  1  0.50143345  0.66982405  0.06699269  1
  H  H1409  1  0.97428194  0.68774394  0.21918129  1
  H  H1410  1  0.76790793  0.66428881  0.01987057  1
  C  C1411  1  0.63449618  0.74401039  0.19271409  1
  C  C1412  1  0.56970595  0.53629844  0.00771784  1
  H  H1413  1  0.79992586  0.58140766  0.24022122  1
  N  N1414  1  0.81304656  0.50950380  0.16825307  1
  O  O1415  1  0.52348252  0.64579208  0.19313809  1
  C  C1416  1  0.50429343  0.62023392  0.21411958  1
  C  C1417  1  0.84835459  0.51173665  0.23825516  1
  H  H1418  1  0.61651213  0.53788856  0.00994889  1
  O  O1419  1  0.80760355  0.50023218  0.04477704  1
  O  O1420  1  0.86007145  0.73381238  0.05909166  1
  O  O1421  1  0.68579101  0.74880211  0.18306473  1
  Cu  Cu1422  1  0.93694296  0.74549315  0.05658810  1
  H  H1423  1  0.50927973  0.55443250  0.05429799  1
  O  O1424  1  0.99566371  0.59839895  0.23008388  1
  C  C1425  1  0.64211587  0.58820853  0.24880884  1
  H  H1426  1  0.57233030  0.54127775  0.24958752  1
  O  O1427  1  0.89764328  0.50380354  0.24612186  1
  C  C1428  1  0.65155335  0.63060706  0.24498356  1
  C  C1429  1  0.65665523  0.99774976  0.23971703  1
  C  C1430  1  0.50826267  0.86965689  0.24386559  1
  N  N1431  1  0.51400646  0.92855114  0.19910820  1
  C  C1432  1  0.83189324  0.99854545  0.15631088  1
  O  O1433  1  0.58922682  0.87900437  0.20237055  1
  O  O1434  1  0.70568487  0.93887835  0.23459726  1
  C  C1435  1  0.54154750  0.94721915  0.16409923  1
  Cu  Cu1436  1  0.87299736  0.85031798  0.13149138  1
  C  C1437  1  0.90922579  0.76743327  0.14274571  1
  O  O1438  1  0.80347176  0.83720151  0.10670060  1
  H  H1439  1  0.58315170  0.94555419  0.18237578  1
  H  H1440  1  0.55991559  0.81781612  0.23393737  1
  Cu  Cu1441  1  0.67577857  0.98570804  0.12617838  1
  C  C1442  1  0.60197730  0.92938462  0.09993708  1
  O  O1443  1  0.89090171  0.79786485  0.15981449  1
  C  C1444  1  0.91606902  0.95849539  0.16261968  1
  O  O1445  1  0.74108555  0.97868137  0.03729100  1
  C  C1446  1  0.75648681  0.85297213  0.10784209  1
  C  C1447  1  0.77740679  0.91247578  0.06236905  1
  C  C1448  1  0.51940956  0.98921734  0.15845421  1
  O  O1449  1  0.61295346  0.76219732  0.22229675  1
  O  O1450  1  0.60316204  0.93243896  0.06433919  1
  C  C1451  1  0.93627361  0.98770475  0.18945056  1
  H  H1452  1  0.60141250  0.94753253  0.24811976  1
  C  C1453  1  0.73683721  0.82196750  0.24727483  1
  C  C1454  1  0.54292732  0.92290665  0.12566287  1
  H  H1455  1  0.50908516  0.92820350  0.10332765  1
  H  H1456  1  0.76436174  0.96220283  0.10673775  1
  C  C1457  1  0.52188640  0.82787984  0.24962668  1
  O  O1458  1  0.87628051  0.90448944  0.10897812  1
  H  H1459  1  0.72550756  0.86297913  0.04719797  1
  H  H1460  1  0.53825077  0.88952528  0.13422282  1
  H  H1461  1  0.83495675  0.80497770  0.22657323  1
  C  C1462  1  0.73737512  0.88035652  0.07504476  1
  H  H1463  1  0.94235475  0.93041919  0.15620028  1
  O  O1464  1  0.89015644  0.87637324  0.21980565  1
  C  C1465  1  0.84317215  0.93335128  0.11566951  1
  H  H1466  1  0.69562967  0.89355852  0.08169174  1
  H  H1467  1  0.81754722  0.89715851  0.05808839  1
  C  C1468  1  0.86201317  0.96302541  0.14630744  1
  O  O1469  1  0.71180959  0.97775201  0.18010626  1
  C  C1470  1  0.54512662  0.89257840  0.21289509  1
  N  N1471  1  0.79211526  0.94080622  0.09810268  1
  O  O1472  1  0.74640392  0.81978275  0.21059624  1
  C  C1473  1  0.69366277  0.97042262  0.21559903  1
  C  C1474  1  0.75029087  0.94029719  0.02684752  1
  O  O1475  1  0.64590681  0.93222288  0.12306893  1
  Cu  Cu1476  1  0.71063520  0.79852853  0.16319814  1
  O  O1477  1  0.72165173  0.84645468  0.13608632  1
  O  O1478  1  0.93972484  0.76915159  0.11079031  1
  C  C1479  1  0.99543117  0.98092295  0.20566497  1
  H  H1480  1  0.56787731  0.99612700  0.24727372  1
  C  C1481  1  0.86201408  0.86988896  0.24858152  1
  C  C1482  1  0.67068764  0.62695592  0.34619333  1
  C  C1483  1  0.67184102  0.58512047  0.36327776  1
  C  C1484  1  0.67793108  0.66068487  0.37573734  1
  H  H1485  1  0.68022081  0.69082048  0.35998437  1
  N  N1486  1  0.62566463  0.63507040  0.31573670  1
  C  C1487  1  0.64866971  0.65879320  0.28273025  1
  H  H1488  1  0.70335028  0.62828005  0.32130611  1
  O  O1489  1  0.70392781  0.58274366  0.39282810  1
  C  C1490  1  0.63118887  0.65956613  0.41030773  1
  Cu  Cu1491  1  0.69185227  0.59762872  0.45218451  1
  O  O1492  1  0.64639142  0.64449472  0.44328843  1
  H  H1493  1  0.58726512  0.64523329  0.32517413  1
  O  O1494  1  0.66371765  0.69322988  0.28286731  1
  O  O1495  1  0.63987527  0.55591846  0.35298920  1
  O  O1496  1  0.58278277  0.66546205  0.40193779  1
  H  H1497  1  0.71651392  0.65433853  0.39270440  1
  O  O1498  1  0.90983926  0.61868939  0.30255889  1
  H  H1499  1  0.84688568  0.58438928  0.37020084  1
  C  C1500  1  0.88739184  0.61838979  0.33543158  1
  H  H1501  1  0.85996771  0.68291761  0.28588309  1
  C  C1502  1  0.84304924  0.68811436  0.31732369  1
  C  C1503  1  0.80909394  0.72090125  0.32481060  1
  C  C1504  1  0.78304856  0.72525738  0.36301781  1
  C  C1505  1  0.77957926  0.69965867  0.43630147  1
  C  C1506  1  0.79715584  0.69634386  0.39248120  1
  H  H1507  1  0.84737952  0.64402006  0.41192984  1
  C  C1508  1  0.83400549  0.66327394  0.38641666  1
  C  C1509  1  0.85363663  0.65781815  0.34760353  1
  C  C1510  1  0.92215696  0.55462397  0.36329343  1
  O  O1511  1  0.78066309  0.67135541  0.45959729  1
  N  N1512  1  0.88954276  0.59092718  0.37033609  1
  H  H1513  1  0.63144176  0.57358223  0.27775095  1
  O  O1514  1  0.94067144  0.69846572  0.44419084  1
  C  C1515  1  0.95276285  0.72156638  0.47040179  1
  H  H1516  1  0.95745002  0.56836559  0.34409545  1
  H  H1517  1  0.69948642  0.71561395  0.47535526  1
  C  C1518  1  0.94681460  0.53955062  0.40206307  1
  C  C1519  1  0.89188407  0.52250181  0.33883102  1
  H  H1520  1  0.92142833  0.55282332  0.42692558  1
  O  O1521  1  0.73418985  0.55145195  0.46362095  1
  H  H1522  1  0.56940241  0.72359223  0.29310974  1
  C  C1523  1  0.71542883  0.51667028  0.47253368  1
  Cu  Cu1524  1  0.61155033  0.51313036  0.38535351  1
  O  O1525  1  0.84036360  0.52226281  0.34001120  1
  C  C1526  1  0.97497397  0.72832741  0.26733365  1
  O  O1527  1  0.56069502  0.54728746  0.41257285  1
  H  H1528  1  0.54663714  0.59498365  0.37124816  1
  C  C1529  1  0.50843730  0.55330913  0.41646770  1
  H  H1530  1  0.54047549  0.72324585  0.38012882  1
  C  C1531  1  0.50017276  0.59830620  0.36838378  1
  O  O1532  1  0.51595689  0.65495109  0.31946142  1
  N  N1533  1  0.99248830  0.73804176  0.30436927  1
  O  O1534  1  0.82204434  0.73785080  0.25410288  1
  N  N1535  1  0.75956664  0.73952933  0.44031947  1
  O  O1536  1  0.67260223  0.51396673  0.49454271  1
  C  C1537  1  0.50365106  0.50561843  0.47474490  1
  N  N1538  1  0.59628884  0.51519551  0.25439081  1
  C  C1539  1  0.80787261  0.74843825  0.28647284  1
  H  H1540  1  0.75186158  0.74939245  0.36817313  1
  O  O1541  1  0.80898709  0.50414586  0.26248218  1
  H  H1542  1  0.94169814  0.50446408  0.40443710  1
  H  H1543  1  0.54892189  0.50989687  0.47575106  1
  H  H1544  1  0.53721673  0.63554681  0.49317378  1
  C  C1545  1  0.51978297  0.74779106  0.36275681  1
  H  H1546  1  0.93926881  0.74939608  0.26087029  1
  C  C1547  1  0.72303584  0.74659392  0.47645293  1
  N  N1548  1  0.99648214  0.72297632  0.49854153  1
  Cu  Cu1549  1  0.64070369  0.77532837  0.27538017  1
  N  N1550  1  0.56222100  0.75501538  0.29709321  1
  C  C1551  1  0.56105571  0.77086747  0.33957212  1
  O  O1552  1  0.76104456  0.96118770  0.46612470  1
  C  C1553  1  0.50463292  0.75481431  0.28118046  1
  H  H1554  1  0.86673550  0.80243601  0.27577748  1
  C  C1555  1  0.72462007  0.98504916  0.45247423  1
  Cu  Cu1556  1  0.97343635  0.95182237  0.42618259  1
  C  C1557  1  0.61898157  0.77524416  0.35706281  1
  O  O1558  1  0.99532455  0.89977743  0.40882850  1
  C  C1559  1  0.74829955  0.93016989  0.34238048  1
  O  O1560  1  0.82272129  0.81137841  0.37675533  1
  O  O1561  1  0.73040601  0.99916741  0.41806456  1
  N  N1562  1  0.62054988  0.99287358  0.46697035  1
  O  O1563  1  0.86252098  0.97302615  0.37580311  1
  H  H1564  1  0.77407946  0.76447372  0.42492744  1
  O  O1565  1  0.51824285  0.80276445  0.41339488  1
  O  O1566  1  0.73218343  0.96566619  0.34073379  1
  H  H1567  1  0.74522259  0.88655319  0.38897822  1
  O  O1568  1  0.57907812  0.95919567  0.32755750  1
  C  C1569  1  0.60590767  0.97932803  0.25894520  1
  H  H1570  1  0.81893770  0.85131171  0.48978974  1
  C  C1571  1  0.84108851  0.82119435  0.25617832  1
  H  H1572  1  0.76475152  0.93416131  0.40767896  1
  C  C1573  1  0.77025039  0.91241860  0.38144462  1
  H  H1574  1  0.79370631  0.78894983  0.33179025  1
  N  N1575  1  0.84148129  0.87218087  0.41485349  1
  C  C1576  1  0.60410305  0.98383335  0.30888904  1
  O  O1577  1  0.84036333  0.89829244  0.27075291  1
  O  O1578  1  0.92772047  0.79284965  0.31311627  1
  Cu  Cu1579  1  0.57683335  0.79076969  0.43905858  1
  O  O1580  1  0.75234436  0.90748623  0.31093179  1
  O  O1581  1  0.68837627  0.82047954  0.26282363  1
  Cu  Cu1582  1  0.77328933  0.92079673  0.25794367  1
  C  C1583  1  0.83658570  0.82929131  0.40660629  1
  H  H1584  1  0.87111771  0.88115474  0.43576347  1
  H  H1585  1  0.96145411  0.84254552  0.36526951  1
  O  O1586  1  0.89632684  0.93873486  0.42683596  1
  O  O1587  1  0.62415254  0.77124974  0.39435262  1
  C  C1588  1  0.85192576  0.82791215  0.48591162  1
  C  C1589  1  0.86033129  0.81226579  0.44698598  1
  H  H1590  1  0.84410297  0.88608382  0.35301055  1
  O  O1591  1  0.65710353  0.78115362  0.33298836  1
  C  C1592  1  0.78455405  0.82114646  0.27484406  1
  H  H1593  1  0.77971550  0.84560368  0.29839864  1
  C  C1594  1  0.91793243  0.76022856  0.47806034  1
  H  H1595  1  0.90083077  0.75988294  0.41494043  1
  H  H1596  1  0.62384732  0.96497725  0.45262289  1
  O  O1597  1  0.70575519  0.81884563  0.45899793  1
  C  C1598  1  0.98710436  0.82087537  0.37866419  1
  C  C1599  1  0.86712226  0.94290751  0.39501679  1
  C  C1600  1  0.83120607  0.90185977  0.38117247  1
  C  C1601  1  0.96818590  0.77313497  0.32183605  1
  C  C1602  1  0.89187435  0.77581656  0.44335313  1
  H  H1603  1  0.54278167  0.80282661  0.33191947  1
  O  O1604  1  0.63212127  0.78440913  0.47497552  1
  N  N1605  1  0.78069687  0.78512568  0.30177904  1
  C  C1606  1  0.68423276  0.78730227  0.46760696  1
  Cu  Cu1607  1  0.81958214  0.97612730  0.49794016  1
  H  H1608  1  0.99232150  0.81239134  0.48338407  1
  O  O1609  1  0.99840758  0.99092157  0.49441311  1
  C  C1610  1  0.65346189  0.56403921  0.69906796  1
  C  C1611  1  0.66381788  0.58234688  0.66167777  1
  C  C1612  1  0.70234409  0.61540184  0.65778015  1
  O  O1613  1  0.66190766  0.57621429  0.58763404  1
  C  C1614  1  0.63599685  0.57305172  0.62106050  1
  H  H1615  1  0.62414334  0.53781384  0.69967630  1
  H  H1616  1  0.71052634  0.62730287  0.62701574  1
  Cu  Cu1617  1  0.66769668  0.53889461  0.54374626  1
  N  N1618  1  0.57634733  0.57826428  0.62494198  1
  C  C1619  1  0.57784236  0.53167272  0.63267707  1
  O  O1620  1  0.55264349  0.66548135  0.64988956  1
  C  C1621  1  0.53722984  0.52674569  0.66974699  1
  C  C1622  1  0.73360384  0.62789297  0.69100207  1
  H  H1623  1  0.55728129  0.58826721  0.59838331  1
  C  C1624  1  0.59991938  0.67900039  0.64572295  1
  H  H1625  1  0.55040235  0.52292091  0.60584551  1
  Cu  Cu1626  1  0.53577025  0.61383200  0.67130122  1
  O  O1627  1  0.62865056  0.67730310  0.61260833  1
  C  C1628  1  0.77370339  0.66153586  0.68521529  1
  O  O1629  1  0.76575981  0.68114291  0.65298941  1
  H  H1630  1  0.81473955  0.58234839  0.67872177  1
  O  O1631  1  0.91775155  0.62260375  0.62976877  1
  O  O1632  1  0.78210522  0.72011284  0.57544342  1
  C  C1633  1  0.86776093  0.61466112  0.63947630  1
  O  O1634  1  0.82944043  0.61991188  0.61457166  1
  Cu  Cu1635  1  0.80214758  0.67157871  0.59799316  1
  Cu  Cu1636  1  0.96064252  0.66513814  0.65352654  1
  C  C1637  1  0.85651230  0.59862943  0.68065541  1
  H  H1638  1  0.88458040  0.57170053  0.68723945  1
  N  N1639  1  0.81483476  0.66357958  0.71481798  1
  C  C1640  1  0.85484672  0.62740829  0.71639824  1
  H  H1641  1  0.84044164  0.68815185  0.71336170  1
  C  C1642  1  0.74676893  0.72529729  0.54726997  1
  O  O1643  1  0.70329099  0.70450060  0.54492878  1
  O  O1644  1  0.95500279  0.63785578  0.70650050  1
  O  O1645  1  0.96799959  0.68976940  0.59976825  1
  C  C1646  1  0.61940095  0.69900587  0.68328385  1
  C  C1647  1  0.99564705  0.68683574  0.52686559  1
  H  H1648  1  0.65041900  0.67667058  0.69646358  1
  H  H1649  1  0.58487250  0.70340042  0.70644195  1
  C  C1650  1  0.72361475  0.60960622  0.72910261  1
  O  O1651  1  0.81632345  0.53172686  0.72013812  1
  Cu  Cu1652  1  0.62721031  0.71788274  0.57024685  1
  O  O1653  1  0.59400226  0.68397438  0.53581143  1
  H  H1654  1  0.95540103  0.67325809  0.52213155  1
  O  O1655  1  0.99101354  0.53884493  0.68078353  1
  O  O1656  1  0.53628949  0.57277614  0.54747884  1
  C  C1657  1  0.91466603  0.64832781  0.72591966  1
  O  O1658  1  0.51376687  0.56046448  0.68335928  1
  C  C1659  1  0.54473592  0.69597146  0.52151924  1
  C  C1660  1  0.68441225  0.57811500  0.73342471  1
  O  O1661  1  0.52743232  0.73007734  0.52619132  1
  C  C1662  1  0.85231780  0.52311656  0.74309508  1
  H  H1663  1  0.66386484  0.50722844  0.64460129  1
  C  C1664  1  0.50838356  0.65941640  0.50333104  1
  Cu  Cu1665  1  0.99999944  0.54480056  0.52799145  1
  O  O1666  1  0.99573348  0.60062341  0.51935836  1
  C  C1667  1  0.64794637  0.74051672  0.67724109  1
  H  H1668  1  0.69378969  0.73775258  0.67849703  1
  H  H1669  1  0.83668175  0.61344689  0.74553179  1
  H  H1670  1  0.80185839  0.75489211  0.50539213  1
  O  O1671  1  0.72314869  0.93793908  0.71979133  1
  C  C1672  1  0.85587163  0.90095521  0.53682477  1
  O  O1673  1  0.81832382  0.92192751  0.52142089  1
  C  C1674  1  0.75581283  0.75470474  0.51448214  1
  H  H1675  1  0.91770749  0.75484866  0.74039720  1
  C  C1676  1  0.74133337  0.92019069  0.74691032  1
  C  C1677  1  0.87793109  0.81152933  0.52112473  1
  H  H1678  1  0.59100443  0.78160108  0.70766184  1
  N  N1679  1  0.79021795  0.86579943  0.57877438  1
  H  H1680  1  0.93901210  0.78253828  0.66146542  1
  H  H1681  1  0.63996854  0.97496090  0.53087638  1
  C  C1682  1  0.87820985  0.89061369  0.60739760  1
  N  N1683  1  0.62939713  0.76634620  0.71123369  1
  O  O1684  1  0.87380666  0.99856105  0.52986048  1
  O  O1685  1  0.86471280  0.81637007  0.68048378  1
  H  H1686  1  0.97198167  0.84273415  0.52608520  1
  O  O1687  1  0.88865213  0.81002981  0.59324321  1
  C  C1688  1  0.84901805  0.92951634  0.62801069  1
  H  H1689  1  0.77014618  0.81783669  0.69710104  1
  H  H1690  1  0.74399492  0.78751982  0.52381248  1
  C  C1691  1  0.62707248  0.76688593  0.63705391  1
  H  H1692  1  0.70749810  0.95302854  0.52490223  1
  O  O1693  1  0.97302423  0.91476062  0.69473164  1
  C  C1694  1  0.82236454  0.77164119  0.72954565  1
  N  N1695  1  0.91578203  0.76254176  0.70997800  1
  H  H1696  1  0.71499616  0.89297754  0.65246251  1
  O  O1697  1  0.80317827  0.94106142  0.61910018  1
  C  C1698  1  0.86906614  0.78923672  0.70375745  1
  H  H1699  1  0.76707425  0.88872983  0.56517801  1
  H  H1700  1  0.95440807  0.84114401  0.70676986  1
  C  C1701  1  0.72169959  0.77548271  0.73769456  1
  O  O1702  1  0.65364855  0.75848841  0.60471762  1
  C  C1703  1  0.77045724  0.79002106  0.71948345  1
  H  H1704  1  0.88281235  0.86760246  0.63337865  1
  Cu  Cu1705  1  0.89211474  0.92133474  0.70598131  1
  C  C1706  1  0.84812577  0.87059593  0.57090170  1
  O  O1707  1  0.87769774  0.94739661  0.65549995  1
  O  O1708  1  0.59149672  0.79226956  0.63678730  1
  C  C1709  1  0.87106283  0.82681876  0.56439055  1
  C  C1710  1  0.91213196  0.77588440  0.51805783  1
  H  H1711  1  0.69608506  0.84909915  0.66277552  1
  C  C1712  1  0.68311568  0.98276498  0.52257858  1
  H  H1713  1  0.77733528  0.86557881  0.60786906  1
  C  C1714  1  0.96582169  0.77866358  0.68846304  1
  O  O1715  1  0.98598760  0.87432964  0.64260450  1
  C  C1716  1  0.98907500  0.81687442  0.70750509  1
  O  O1717  1  0.72258750  0.86475019  0.64884026  1
  O  O1718  1  0.90663115  0.90239231  0.52708015  1
  H  H1719  1  0.93282369  0.76166093  0.54460094  1
  H  H1720  1  0.92114225  0.89966180  0.59934006  1
  O  O1721  1  0.66692224  0.83464728  0.71584739  1
  Cu  Cu1722  1  0.95021463  0.95080470  0.50758183  1
  C  C1723  1  0.66802933  0.79864608  0.72139523  1
  C  C1724  1  0.59518820  0.66830696  0.85410548  1
  H  H1725  1  0.61847205  0.69542514  0.86367532  1
  C  C1726  1  0.67548764  0.55813830  0.77563520  1
  C  C1727  1  0.58379894  0.65077943  0.77899805  1
  H  H1728  1  0.68144830  0.57521109  0.89333140  1
  C  C1729  1  0.67712915  0.55598018  0.92137088  1
  O  O1730  1  0.76590612  0.65721303  0.80538148  1
  N  N1731  1  0.76877327  0.53154619  0.89112017  1
  C  C1732  1  0.77256599  0.69330488  0.81003527  1
  H  H1733  1  0.77848354  0.55208889  0.79827419  1
  H  H1734  1  0.75775047  0.55217138  0.94416319  1
  C  C1735  1  0.79584209  0.57170030  0.88704489  1
  H  H1736  1  0.79828672  0.67345311  0.87345071  1
  O  O1737  1  0.79350664  0.60048905  0.90969920  1
  C  C1738  1  0.80429409  0.70599678  0.88019048  1
  C  C1739  1  0.82079504  0.55748668  0.80873785  1
  H  H1740  1  0.95489137  0.55111299  0.76986791  1
  C  C1741  1  0.86535692  0.54914514  0.78294050  1
  C  C1742  1  0.92132362  0.56036541  0.79146940  1
  C  C1743  1  0.83654986  0.56981722  0.84898163  1
  H  H1744  1  0.90224307  0.59241467  0.89120048  1
  C  C1745  1  0.89029210  0.58114129  0.86023179  1
  O  O1746  1  0.92227597  0.66503447  0.88001806  1
  C  C1747  1  0.90283809  0.69578216  0.86195906  1
  O  O1748  1  0.92073269  0.70839501  0.82793426  1
  Cu  Cu1749  1  0.97333486  0.68314516  0.79328263  1
  C  C1750  1  0.93081997  0.57704015  0.82951451  1
  C  C1751  1  0.86241563  0.72220619  0.88110911  1
  N  N1752  1  0.55060552  0.66980297  0.87458924  1
  O  O1753  1  0.69932239  0.57087949  0.80434710  1
  N  N1754  1  0.64622606  0.51899977  0.76987581  1
  C  C1755  1  0.72774998  0.53257836  0.92603324  1
  H  H1756  1  0.64185533  0.53326176  0.92015919  1
  H  H1757  1  0.60589394  0.53944908  0.81896586  1
  O  O1758  1  0.91895004  0.67282593  0.75505252  1
  H  H1759  1  0.75436830  0.53006976  0.86092280  1
  H  H1760  1  0.75048959  0.61828191  0.75474278  1
  C  C1761  1  0.60471013  0.63493966  0.82179779  1
  C  C1762  1  0.66480021  0.58846833  0.95706124  1
  H  H1763  1  0.57957341  0.60649384  0.82787457  1
  O  O1764  1  0.63068671  0.61361647  0.95467453  1
  O  O1765  1  0.54448957  0.62747477  0.76346334  1
  H  H1766  1  0.87524404  0.72946828  0.91420851  1
  C  C1767  1  0.54272314  0.69961769  0.90572434  1
  O  O1768  1  0.60471676  0.67816311  0.76052126  1
  H  H1769  1  0.65117297  0.62692614  0.81997667  1
  H  H1770  1  0.52350864  0.64623874  0.87108052  1
  N  N1771  1  0.78138454  0.72108759  0.84222554  1
  O  O1772  1  0.87600254  0.51298038  0.93400599  1
  H  H1773  1  0.55928284  0.54149723  0.97406947  1
  O  O1774  1  0.52406093  0.55545677  0.80560298  1
  C  C1775  1  0.51369139  0.52254359  0.78763886  1
  C  C1776  1  0.99113724  0.59242992  0.84209500  1
  O  O1777  1  0.57054535  0.72729946  0.91655935  1
  C  C1778  1  0.76324907  0.72557632  0.91963355  1
  C  C1779  1  0.61285186  0.50890658  0.80594253  1
  O  O1780  1  0.93483151  0.53019844  0.98342756  1
  O  O1781  1  0.99991630  0.60587754  0.87841596  1
  Cu  Cu1782  1  0.98154452  0.65141960  0.90941447  1
  O  O1783  1  0.69780109  0.58436322  0.98873976  1
  H  H1784  1  0.86341321  0.73034187  0.77393667  1
  C  C1785  1  0.77290154  0.72781661  0.77784509  1
  O  O1786  1  0.78114819  0.72012578  0.95438615  1
  H  H1787  1  0.52223923  0.60889621  0.98847633  1
  C  C1788  1  0.90147598  0.50595353  0.96646617  1
  H  H1789  1  0.68001284  0.73251899  0.77915957  1
  O  O1790  1  0.71813485  0.74033677  0.91142638  1
  C  C1791  1  0.82416792  0.74138284  0.76061576  1
  C  C1792  1  0.71980845  0.74386390  0.76559180  1
  C  C1793  1  0.50414470  0.54669909  0.91619450  1
  O  O1794  1  0.52920683  0.57344862  0.90107211  1
  H  H1795  1  0.68044553  0.50016678  0.76744578  1
  O  O1796  1  0.93534571  0.73501152  0.99748379  1
  C  C1797  1  0.95209643  0.76299479  0.97421055  1
  H  H1798  1  0.86796366  0.75393953  0.86936122  1
  O  O1799  1  0.75880461  0.90149575  0.77568626  1
  C  C1800  1  0.88639848  0.98084210  0.92874436  1
  H  H1801  1  0.96100831  0.99964290  0.92043708  1
  H  H1802  1  0.81781580  0.88182143  0.80622156  1
  O  O1803  1  0.88079229  0.99421393  0.96168473  1
  O  O1804  1  0.89794826  0.89211625  0.75433586  1
  N  N1805  1  0.93092968  0.88993501  0.86117085  1
  O  O1806  1  0.89505448  0.96784348  0.89523814  1
  C  C1807  1  0.82873685  0.82580581  0.84664953  1
  C  C1808  1  0.98100674  0.86844694  0.87072931  1
  O  O1809  1  0.92185534  0.78376870  0.95405912  1
  O  O1810  1  0.78919408  0.80751948  0.83138578  1
  C  C1811  1  0.90176275  0.87865493  0.82357596  1
  O  O1812  1  0.99924631  0.83508190  0.86212110  1
  H  H1813  1  0.92229861  0.84701706  0.81878704  1
  C  C1814  1  0.91009195  0.90718589  0.78804191  1
  O  O1815  1  0.86240506  0.80874147  0.86819499  1
  H  H1816  1  0.78197892  0.75220649  0.83628672  1
  O  O1817  1  0.92869462  0.94278707  0.79104790  1
  O  O1818  1  0.99454211  0.78314488  0.77667780  1
  H  H1819  1  0.83049144  0.89772432  0.85549778  1
  C  C1820  1  0.84311426  0.87337030  0.83340485  1
  H  H1821  1  0.91919166  0.91380850  0.88040925  1
  H  H1822  1  0.98568885  0.95361248  0.88700986  1
  O  O1823  1  0.73368921  0.92657089  0.99613017  1
