# generated using pymatgen
data_CuH5C7NO5
_symmetry_space_group_name_H-M   'P 1'
_cell_length_a   36.60136594
_cell_length_b   34.36492834
_cell_length_c   23.05148788
_cell_angle_alpha   90.00000000
_cell_angle_beta   90.00000000
_cell_angle_gamma   90.00000000
_symmetry_Int_Tables_number   1
_chemical_formula_structural   CuH5C7NO5
_chemical_formula_sum   'Cu96 H480 C672 N96 O480'
_cell_volume   28994.23793416
_cell_formula_units_Z   96
loop_
 _symmetry_equiv_pos_site_id
 _symmetry_equiv_pos_as_xyz
  1  'x, y, z'
loop_
 _atom_site_type_symbol
 _atom_site_label
 _atom_site_symmetry_multiplicity
 _atom_site_fract_x
 _atom_site_fract_y
 _atom_site_fract_z
 _atom_site_occupancy
  C  C0  1  0.03914759  0.13339587  0.12044957  1
  O  O1  1  0.04612520  0.10923401  0.15930551  1
  O  O2  1  0.18227861  0.19391481  0.14461349  1
  O  O3  1  0.19178803  0.03677948  0.17514390  1
  C  C4  1  0.16313668  0.16170807  0.14249246  1
  Cu  Cu5  1  0.01537366  0.21227156  0.16316042  1
  H  H6  1  0.18274389  0.14717049  0.05561332  1
  C  C7  1  0.06473050  0.13273690  0.07034652  1
  C  C8  1  0.15766546  0.14237855  0.08102113  1
  H  H9  1  0.13576204  0.15898095  0.05886683  1
  H  H10  1  0.07782132  0.10312775  0.07372502  1
  H  H11  1  0.08675848  0.15280743  0.07571309  1
  C  C12  1  0.15175000  0.09931563  0.09075362  1
  O  O13  1  0.13989617  0.07265746  0.06461125  1
  H  H14  1  0.16011899  0.08569152  0.13489722  1
  O  O15  1  0.14992141  0.14920973  0.18588295  1
  O  O16  1  0.01496075  0.15909516  0.12492060  1
  O  O17  1  0.11969310  0.22513240  0.10941987  1
  C  C18  1  0.10552485  0.23032600  0.05905127  1
  C  C19  1  0.22343283  0.05166567  0.17661617  1
  C  C20  1  0.22635590  0.09481152  0.20054676  1
  H  H21  1  0.21992825  0.11161222  0.15833657  1
  O  O22  1  0.05205632  0.05104007  0.23782461  1
  Cu  Cu23  1  0.02196391  0.09568569  0.23376022  1
  C  C24  1  0.04889700  0.13729833  0.01142895  1
  C  C25  1  0.23698140  0.07837341  0.03159083  1
  H  H26  1  0.20794844  0.07023843  0.02190990  1
  C  C27  1  0.24478151  0.12420101  0.02254408  1
  H  H28  1  0.23934144  0.07509292  0.07926819  1
  H  H29  1  0.00176952  0.10834074  0.03819429  1
  O  O30  1  0.01581848  0.19009926  0.24050211  1
  N  N31  1  0.01524989  0.12608058  0.00733619  1
  O  O32  1  0.00656684  0.23880880  0.08800133  1
  H  H33  1  0.20551918  0.10192620  0.22810062  1
  O  O34  1  0.10863797  0.20779208  0.01984268  1
  Cu  Cu35  1  0.16470250  0.24622561  0.13243840  1
  O  O36  1  0.25005881  0.03389441  0.16274614  1
  O  O37  1  0.26251417  0.14104627  0.06463102  1
  C  C38  1  0.26459470  0.10844494  0.22431740  1
  C  C39  1  0.42847452  0.03720030  0.09725502  1
  O  O40  1  0.31862021  0.05796863  0.05776260  1
  Cu  Cu41  1  0.33073621  0.09758883  0.11179544  1
  O  O42  1  0.38216941  0.08818847  0.11282569  1
  C  C43  1  0.40328008  0.07165129  0.07560770  1
  O  O44  1  0.35607661  0.16790493  0.04205519  1
  Cu  Cu45  1  0.30973348  0.15595971  0.05207401  1
  O  O46  1  0.33851855  0.13436174  0.17124901  1
  H  H47  1  0.43642256  0.05552442  0.18735712  1
  C  C48  1  0.31117673  0.15235890  0.18955533  1
  H  H49  1  0.36877913  0.20391037  0.18820560  1
  N  N50  1  0.27455800  0.14270103  0.18848131  1
  C  C51  1  0.44231076  0.03427186  0.15390113  1
  C  C52  1  0.34672900  0.21240162  0.21825609  1
  H  H53  1  0.25717901  0.16503284  0.19747614  1
  C  C54  1  0.31504678  0.19030864  0.22053033  1
  H  H55  1  0.28817626  0.08907921  0.21644456  1
  H  H56  1  0.41987093  0.15506025  0.06449646  1
  C  C57  1  0.42325191  0.09897537  0.01983372  1
  C  C58  1  0.41367865  0.14126290  0.02129890  1
  N  N59  1  0.39487888  0.07041901  0.01479894  1
  C  C60  1  0.43975125  0.01078771  0.05375654  1
  C  C61  1  0.30262091  0.06451564  0.01077143  1
  C  C62  1  0.37518475  0.14903901  0.00514592  1
  O  O63  1  0.41397530  0.24852171  0.22070407  1
  H  H64  1  0.30114865  0.23298472  0.02430404  1
  C  C65  1  0.26392920  0.05383897  0.00123163  1
  H  H66  1  0.25809997  0.02271650  0.01000852  1
  C  C67  1  0.48038934  0.00020241  0.22606224  1
  O  O68  1  0.46978829  0.24807883  0.14116426  1
  C  C69  1  0.46652398  0.00302985  0.16470866  1
  H  H70  1  0.42576554  0.01468466  0.01066472  1
  H  H71  1  0.36923455  0.07889706  0.00128834  1
  O  O72  1  0.24608413  0.25405347  0.07856957  1
  H  H73  1  0.12271826  0.49048846  0.04203890  1
  H  H74  1  0.20832038  0.49183574  0.05377567  1
  O  O75  1  0.20919292  0.26768723  0.14855086  1
  N  N76  1  0.01066290  0.43923237  0.07568494  1
  C  C77  1  0.01403443  0.47666645  0.10368318  1
  O  O78  1  0.00853741  0.30172233  0.07025140  1
  O  O79  1  0.02167595  0.47924675  0.15814203  1
  Cu  Cu80  1  0.04277289  0.43383977  0.18522230  1
  C  C81  1  0.05846207  0.35607892  0.18792444  1
  O  O82  1  0.07028666  0.38913408  0.20325870  1
  O  O83  1  0.04771857  0.34926806  0.13641201  1
  Cu  Cu84  1  0.19822405  0.43450669  0.15786382  1
  C  C85  1  0.14528213  0.31618316  0.07049406  1
  O  O86  1  0.14165950  0.29462064  0.11785472  1
  C  C87  1  0.18184499  0.48668368  0.03236858  1
  N  N88  1  0.18747649  0.44463732  0.03583004  1
  H  H89  1  0.08018299  0.28797241  0.08609576  1
  O  O90  1  0.01534163  0.26158495  0.20158186  1
  O  O91  1  0.16362205  0.34441707  0.06711230  1
  O  O92  1  0.22831652  0.39019864  0.15381974  1
  C  C93  1  0.14169911  0.48161952  0.12963305  1
  O  O94  1  0.17100998  0.47970369  0.16024229  1
  O  O95  1  0.11185387  0.47744559  0.14710653  1
  H  H96  1  0.02177545  0.43746072  0.03475167  1
  H  H97  1  0.23024088  0.31018778  0.21416721  1
  C  C98  1  0.22245455  0.43748723  0.00715562  1
  C  C99  1  0.09132200  0.27522594  0.04513481  1
  C  C100  1  0.23770617  0.37205089  0.19817609  1
  C  C101  1  0.23721502  0.27537116  0.11812255  1
  H  H102  1  0.17446291  0.42185397  0.01363425  1
  N  N103  1  0.24620392  0.46587545  0.15743661  1
  C  C104  1  0.24981253  0.33085655  0.19050572  1
  O  O105  1  0.00807376  0.41931633  0.23959648  1
  H  H106  1  0.24909402  0.47953675  0.11940094  1
  C  C107  1  0.12436225  0.29573943  0.02416187  1
  H  H108  1  0.24640792  0.33998013  0.10270326  1
  C  C109  1  0.14810114  0.49942814  0.06438877  1
  C  C110  1  0.00469567  0.32822499  0.24334415  1
  O  O111  1  0.23237190  0.38386305  0.24850068  1
  C  C112  1  0.04516694  0.33049269  0.23380160  1
  H  H113  1  0.05771447  0.30110496  0.22316335  1
  H  H114  1  0.07019041  0.27289715  0.01089778  1
  C  C115  1  0.30189365  0.49709760  0.15214872  1
  Cu  Cu116  1  0.43622328  0.27668273  0.00214819  1
  C  C117  1  0.47610645  0.27147019  0.10183872  1
  O  O118  1  0.25159748  0.44764097  0.02303011  1
  O  O119  1  0.33024704  0.35718112  0.20134141  1
  H  H120  1  0.28715350  0.31322482  0.12373759  1
  C  C121  1  0.38864899  0.26300959  0.24921292  1
  C  C122  1  0.30795640  0.34984848  0.23552801  1
  Cu  Cu123  1  0.46246994  0.25751006  0.22266030  1
  C  C124  1  0.25721553  0.31665084  0.13161332  1
  O  O125  1  0.45331382  0.29357614  0.07549193  1
  C  C126  1  0.36707811  0.26256662  0.03076330  1
  C  C127  1  0.27662883  0.47094304  0.18729974  1
  O  O128  1  0.40021973  0.25351250  0.03998296  1
  H  H129  1  0.29284973  0.29472839  0.21595536  1
  O  O130  1  0.35088804  0.28415671  0.06238565  1
  N  N131  1  0.27988769  0.31999703  0.22896563  1
  H  H132  1  0.33496925  0.49812353  0.22991475  1
  O  O133  1  0.28290228  0.45861574  0.24136214  1
  H  H134  1  0.02601290  0.16407235  0.38131124  1
  O  O135  1  0.04983603  0.09337822  0.37133822  1
  N  N136  1  0.14759074  0.20490242  0.48339060  1
  H  H137  1  0.16127735  0.19932334  0.44456332  1
  C  C138  1  0.02287110  0.16785151  0.47527056  1
  C  C139  1  0.02205749  0.10243478  0.34879861  1
  Cu  Cu140  1  0.22334226  0.16674734  0.37683042  1
  O  O141  1  0.22015107  0.18656558  0.44810875  1
  H  H142  1  0.08118938  0.03579480  0.33234057  1
  C  C143  1  0.12438789  0.17043422  0.47786702  1
  C  C144  1  0.06080136  0.01344960  0.32037051  1
  C  C145  1  0.01434226  0.20774272  0.47958609  1
  C  C146  1  0.04268393  0.23561080  0.48316265  1
  C  C147  1  0.05990685  0.15724587  0.47232154  1
  H  H148  1  0.03990682  0.01651537  0.35754188  1
  C  C149  1  0.07922018  0.22632314  0.49113324  1
  H  H150  1  0.06995081  0.12662518  0.46492747  1
  C  C151  1  0.08532634  0.18585714  0.47703790  1
  O  O152  1  0.13061068  0.13646244  0.47813427  1
  O  O153  1  0.00485774  0.08464316  0.30813247  1
  C  C154  1  0.00322964  0.14546001  0.36416926  1
  H  H155  1  0.10060605  0.24886556  0.49415585  1
  O  O156  1  0.22794473  0.14098862  0.30715467  1
  O  O157  1  0.23048060  0.21801400  0.34145932  1
  C  C158  1  0.22386441  0.16743034  0.49391632  1
  C  C159  1  0.04294708  0.02132889  0.26421371  1
  O  O160  1  0.01422279  0.00112864  0.25492897  1
  C  C161  1  0.25106152  0.11378514  0.28953829  1
  H  H162  1  0.31398490  0.05064511  0.42294524  1
  O  O163  1  0.26515960  0.09373740  0.32521376  1
  C  C164  1  0.29170434  0.23137590  0.29831509  1
  H  H165  1  0.26151907  0.18450830  0.26504969  1
  C  C166  1  0.26058875  0.23660034  0.34516263  1
  C  C167  1  0.28703660  0.20079292  0.25957547  1
  C  C168  1  0.31230214  0.02574006  0.45429037  1
  C  C169  1  0.28700668  0.23810588  0.41160206  1
  H  H170  1  0.25224696  0.24436203  0.48547022  1
  H  H171  1  0.34002064  0.02391028  0.47309885  1
  O  O172  1  0.46793269  0.02178306  0.26119911  1
  O  O173  1  0.49157516  0.23525324  0.46271785  1
  H  H174  1  0.31404114  0.22852602  0.39920813  1
  C  C175  1  0.35047341  0.24435786  0.25493212  1
  O  O176  1  0.27123426  0.07118478  0.49217239  1
  C  C177  1  0.28564945  0.03832596  0.49845014  1
  O  O178  1  0.12445152  0.25600586  0.28751768  1
  C  C179  1  0.10457640  0.27506346  0.31484785  1
  C  C180  1  0.22517819  0.48993922  0.39282371  1
  H  H181  1  0.16692334  0.48856320  0.41411993  1
  C  C182  1  0.11117438  0.38466915  0.37447764  1
  O  O183  1  0.07932006  0.39714568  0.36176269  1
  C  C184  1  0.13919416  0.39992391  0.33413190  1
  N  N185  1  0.18639458  0.44340320  0.34397642  1
  C  C186  1  0.21887589  0.44867449  0.36484187  1
  C  C187  1  0.17567192  0.40878551  0.35656355  1
  H  H188  1  0.19247039  0.38750198  0.38023674  1
  O  O189  1  0.03366975  0.30470460  0.44409527  1
  Cu  Cu190  1  0.05727866  0.44643550  0.37970951  1
  O  O191  1  0.11599035  0.36143440  0.41433224  1
  Cu  Cu192  1  0.07699126  0.33134093  0.43505946  1
  H  H193  1  0.13047718  0.42754837  0.30879016  1
  H  H194  1  0.14200212  0.37788943  0.29759712  1
  H  H195  1  0.05722941  0.34185536  0.27506070  1
  O  O196  1  0.22679812  0.32713523  0.41025960  1
  O  O197  1  0.09383940  0.47870382  0.35392857  1
  C  C198  1  0.02928937  0.28084334  0.48535446  1
  O  O199  1  0.01838563  0.41931321  0.41375923  1
  O  O200  1  0.24703017  0.42970212  0.35300977  1
  O  O201  1  0.08372777  0.29168207  0.34498842  1
  O  O202  1  0.18654411  0.41308504  0.49327875  1
  H  H203  1  0.24721387  0.28058855  0.40747299  1
  H  H204  1  0.21001009  0.34871207  0.49425959  1
  C  C205  1  0.39631279  0.32235232  0.37386410  1
  C  C206  1  0.28309985  0.35775876  0.39403285  1
  O  O207  1  0.36600891  0.46122056  0.38147727  1
  Cu  Cu208  1  0.49909057  0.49590534  0.42024422  1
  C  C209  1  0.32346144  0.25351852  0.29500390  1
  H  H210  1  0.36581503  0.46732251  0.48197320  1
  C  C211  1  0.30946971  0.38467573  0.41799385  1
  H  H212  1  0.36834529  0.33310201  0.36176617  1
  C  C213  1  0.44010694  0.47777381  0.48722544  1
  O  O214  1  0.46171036  0.25883864  0.30762188  1
  C  C215  1  0.40994332  0.29133288  0.33696421  1
  H  H216  1  0.32571910  0.27727271  0.32710626  1
  O  O217  1  0.38451504  0.33724794  0.47144065  1
  H  H218  1  0.28198771  0.28349717  0.47861603  1
  N  N219  1  0.39078262  0.29804758  0.28034580  1
  C  C220  1  0.28018163  0.25115817  0.47380158  1
  Cu  Cu221  1  0.44460557  0.25298323  0.46909544  1
  O  O222  1  0.47403337  0.47812008  0.48383064  1
  C  C223  1  0.33588678  0.39000563  0.31871551  1
  Cu  Cu224  1  0.26468182  0.41613320  0.28078417  1
  C  C225  1  0.44984457  0.28672141  0.33665275  1
  O  O226  1  0.47132043  0.31274755  0.35538056  1
  N  N227  1  0.26879169  0.26844330  0.38272384  1
  C  C228  1  0.25232647  0.34433703  0.43149262  1
  H  H229  1  0.26444663  0.32603087  0.31826730  1
  C  C230  1  0.28514691  0.34683433  0.33745979  1
  C  C231  1  0.39508070  0.31099294  0.44126502  1
  H  H232  1  0.36240403  0.30354773  0.27911871  1
  C  C233  1  0.33389794  0.39861740  0.37832710  1
  H  H234  1  0.39586260  0.26245122  0.33978877  1
  O  O235  1  0.40232599  0.27657543  0.45740349  1
  C  C236  1  0.31118150  0.36224746  0.29814413  1
  H  H237  1  0.31071183  0.39293151  0.46413403  1
  H  H238  1  0.41362016  0.34878535  0.37158677  1
  H  H239  1  0.35725231  0.40243131  0.28882230  1
  C  C240  1  0.36069943  0.43072975  0.40429603  1
  H  H241  1  0.36983285  0.38331343  0.46070589  1
  N  N242  1  0.37402239  0.41317786  0.45518037  1
  H  H243  1  0.28592849  0.33607384  0.49986869  1
  N  N244  1  0.26300856  0.35112146  0.49109473  1
  C  C245  1  0.15344452  0.21621798  0.59129490  1
  O  O246  1  0.10661898  0.13165863  0.62171061  1
  O  O247  1  0.16980649  0.21016120  0.63903149  1
  C  C248  1  0.16420155  0.05139151  0.62287588  1
  H  H249  1  0.20584491  0.16987317  0.58394687  1
  H  H250  1  0.15735193  0.08006027  0.64353331  1
  H  H251  1  0.14684888  0.04758756  0.58427738  1
  C  C252  1  0.19224473  0.17026219  0.54078023  1
  C  C253  1  0.20283790  0.05297518  0.60183627  1
  O  O254  1  0.04701103  0.20990388  0.62915517  1
  O  O255  1  0.03275456  0.13074703  0.60551741  1
  C  C256  1  0.11392177  0.12799100  0.67424894  1
  Cu  Cu257  1  0.07059373  0.16788597  0.59688255  1
  C  C258  1  0.15915209  0.02032848  0.66767717  1
  Cu  Cu259  1  0.15033954  0.19716512  0.71437195  1
  O  O260  1  0.14304564  0.14284510  0.69479214  1
  C  C261  1  0.03419018  0.11165457  0.65042509  1
  H  H262  1  0.18640633  0.01548080  0.68987411  1
  C  C263  1  0.03250710  0.04562468  0.70003079  1
  O  O264  1  0.20927534  0.08135659  0.56867228  1
  H  H265  1  0.22381536  0.18236761  0.67593227  1
  O  O266  1  0.22641868  0.02917105  0.61570284  1
  C  C267  1  0.02921639  0.00602893  0.69400825  1
  C  C268  1  0.03169075  0.06887202  0.65052990  1
  C  C269  1  0.03073246  0.05343685  0.59374214  1
  N  N270  1  0.04768734  0.12438932  0.70534166  1
  C  C271  1  0.08711565  0.11308761  0.71383578  1
  H  H272  1  0.04378283  0.15370748  0.70998971  1
  H  H273  1  0.02966706  0.07366797  0.55522376  1
  C  C274  1  0.02707377  0.01305474  0.58858003  1
  H  H275  1  0.10508020  0.03329189  0.69274047  1
  C  C276  1  0.17070703  0.20692248  0.53458643  1
  N  N277  1  0.13116598  0.03971620  0.70632216  1
  H  H278  1  0.21237482  0.12125056  0.72012630  1
  C  C279  1  0.23630950  0.18271410  0.71952492  1
  H  H280  1  0.17449451  0.14420373  0.53596045  1
  H  H281  1  0.08348285  0.08294328  0.70448560  1
  O  O282  1  0.12467302  0.23428759  0.58662658  1
  C  C283  1  0.05670240  0.23396433  0.66844410  1
  H  H284  1  0.18681815  0.23154802  0.51436469  1
  H  H285  1  0.17697839  0.08520993  0.72290777  1
  O  O286  1  0.20080742  0.23880030  0.73255839  1
  H  H287  1  0.03661519  0.06024037  0.74225690  1
  O  O288  1  0.09077026  0.23785277  0.67922777  1
  N  N289  1  0.21240778  0.14869851  0.73708299  1
  C  C290  1  0.22742662  0.21889189  0.74898600  1
  N  N291  1  0.00194704  0.02066716  0.50185213  1
  H  H292  1  0.00089116  0.05040494  0.51421974  1
  O  O293  1  0.28063724  0.01691639  0.54223279  1
  O  O294  1  0.25051448  0.13478926  0.62519273  1
  Cu  Cu295  1  0.25661867  0.10266669  0.55931261  1
  O  O296  1  0.30881549  0.13657381  0.64636521  1
  H  H297  1  0.41317125  0.18535830  0.69046010  1
  C  C298  1  0.27834914  0.14382839  0.65958727  1
  H  H299  1  0.29262329  0.19744053  0.71364555  1
  C  C300  1  0.27459296  0.17118936  0.71682502  1
  O  O301  1  0.42713923  0.19444443  0.58410801  1
  C  C302  1  0.30520189  0.23068641  0.52123621  1
  H  H303  1  0.35049706  0.21127231  0.61068118  1
  N  N304  1  0.36700916  0.22231660  0.64274845  1
  C  C305  1  0.42450251  0.22914671  0.58284431  1
  C  C306  1  0.40742749  0.19977210  0.73039259  1
  C  C307  1  0.35045747  0.23384449  0.69560280  1
  O  O308  1  0.33275050  0.21581462  0.50750427  1
  O  O309  1  0.29751730  0.23528264  0.57751420  1
  O  O310  1  0.47458423  0.16454142  0.71844070  1
  O  O311  1  0.25000186  0.14889973  0.51022744  1
  C  C312  1  0.37599058  0.22199987  0.74389627  1
  O  O313  1  0.32197719  0.24945934  0.70253209  1
  H  H314  1  0.32478132  0.05186589  0.74177126  1
  H  H315  1  0.27232971  0.05915986  0.73422328  1
  H  H316  1  0.00177141  0.26057637  0.69512754  1
  H  H317  1  0.03518545  0.26982287  0.58325085  1
  C  C318  1  0.03193101  0.25920182  0.69942417  1
  H  H319  1  0.03286579  0.33937359  0.62683226  1
  Cu  Cu320  1  0.12274888  0.27001502  0.64416930  1
  O  O321  1  0.11779960  0.31366637  0.69560453  1
  Cu  Cu322  1  0.12415712  0.40072007  0.58855555  1
  O  O323  1  0.07772995  0.38104067  0.58155865  1
  H  H324  1  0.22710293  0.37951979  0.61262584  1
  O  O325  1  0.10611481  0.44127027  0.64266683  1
  O  O326  1  0.19857213  0.30870742  0.60054954  1
  Cu  Cu327  1  0.19488367  0.27453780  0.66775004  1
  O  O328  1  0.13917631  0.36208822  0.64175307  1
  C  C329  1  0.12106698  0.35006097  0.68398124  1
  O  O330  1  0.14530548  0.46786559  0.70297635  1
  C  C331  1  0.12238480  0.44386891  0.69194043  1
  O  O332  1  0.21667482  0.31705274  0.71781189  1
  O  O333  1  0.17082032  0.42093858  0.58405612  1
  H  H334  1  0.07566256  0.38863474  0.68110764  1
  C  C335  1  0.03401231  0.33470145  0.57800136  1
  C  C336  1  0.07019181  0.34887446  0.55991862  1
  C  C337  1  0.22950682  0.38676980  0.56491305  1
  C  C338  1  0.22552294  0.31419846  0.56671435  1
  C  C339  1  0.23098676  0.34908125  0.53019218  1
  C  C340  1  0.19434884  0.41194288  0.54382274  1
  C  C341  1  0.02613469  0.29463295  0.55601449  1
  H  H342  1  0.01235085  0.35552236  0.56339381  1
  C  C343  1  0.09647176  0.37689359  0.71308534  1
  O  O344  1  0.08805440  0.33352262  0.51983122  1
  N  N345  1  0.04109446  0.28621061  0.73677798  1
  C  C346  1  0.11378853  0.41176258  0.74195569  1
  O  O347  1  0.02882394  0.44560911  0.73063116  1
  H  H348  1  0.06760879  0.28251711  0.74832482  1
  H  H349  1  0.08086386  0.36053209  0.74688852  1
  H  H350  1  0.40598374  0.26238067  0.66944667  1
  H  H351  1  0.42671448  0.44980884  0.56222586  1
  C  C352  1  0.25102223  0.32066388  0.72113886  1
  O  O353  1  0.25023447  0.28991238  0.56491279  1
  H  H354  1  0.25509557  0.40324479  0.55949135  1
  O  O355  1  0.32809833  0.42238084  0.55620536  1
  Cu  Cu356  1  0.35301551  0.38623156  0.66703539  1
  C  C357  1  0.37955128  0.44150828  0.50246551  1
  O  O358  1  0.27087261  0.32032427  0.67764876  1
  H  H359  1  0.36561082  0.26551934  0.55172475  1
  O  O360  1  0.33026384  0.37046525  0.73445869  1
  C  C361  1  0.42063801  0.44465308  0.51417942  1
  C  C362  1  0.37931241  0.28198916  0.58680808  1
  H  H363  1  0.43572035  0.41710691  0.50293498  1
  O  O364  1  0.32190866  0.31346266  0.59206111  1
  O  O365  1  0.36733916  0.33287457  0.64914656  1
  O  O366  1  0.44424625  0.25083534  0.55259452  1
  C  C367  1  0.39475051  0.25141788  0.62683614  1
  O  O368  1  0.37795130  0.40491691  0.59969475  1
  C  C369  1  0.35432955  0.31150209  0.60945399  1
  H  H370  1  0.40181585  0.29890635  0.56733697  1
  C  C371  1  0.36011032  0.42083683  0.55811994  1
  Cu  Cu372  1  0.28758418  0.27889477  0.62225427  1
  C  C373  1  0.17918591  0.02435749  0.84384236  1
  C  C374  1  0.16981985  0.04078758  0.79015275  1
  O  O375  1  0.06924250  0.18422358  0.79196448  1
  C  C376  1  0.09680177  0.16640998  0.79016755  1
  H  H377  1  0.07599010  0.10559540  0.80537207  1
  C  C378  1  0.20357302  0.09675283  0.80507633  1
  C  C379  1  0.20259423  0.04577392  0.87993475  1
  C  C380  1  0.21145499  0.08320872  0.86075717  1
  C  C381  1  0.21872967  0.13722840  0.79453519  1
  C  C382  1  0.18158275  0.07602151  0.76745966  1
  H  H383  1  0.12362376  0.10792611  0.78914810  1
  C  C384  1  0.09594064  0.12009135  0.77640276  1
  O  O385  1  0.12930908  0.18353424  0.78991784  1
  C  C386  1  0.22000990  0.03116145  0.93446369  1
  C  C387  1  0.11912468  0.09710348  0.90360337  1
  O  O388  1  0.09300712  0.08596977  0.91534534  1
  Cu  Cu389  1  0.23882948  0.20565005  0.86214755  1
  O  O390  1  0.23642367  0.15352913  0.83376799  1
  H  H391  1  0.00874414  0.05292544  0.98002242  1
  O  O392  1  0.24665936  0.22748789  0.79333896  1
  C  C393  1  0.00478060  0.02054640  0.97709337  1
  O  O394  1  0.01917056  0.14584916  0.90965273  1
  C  C395  1  0.00415937  0.14591165  0.95533648  1
  O  O396  1  0.03427804  0.00064865  0.79649833  1
  C  C397  1  0.14296292  0.01784749  0.75495654  1
  H  H398  1  0.22822600  0.10117432  0.88915535  1
  H  H399  1  0.00925269  0.01880728  0.88255815  1
  H  H400  1  0.06177104  0.15445843  0.97467578  1
  O  O401  1  0.23640058  0.13923403  0.97850011  1
  O  O402  1  0.21059387  0.00512557  0.96290451  1
  H  H403  1  0.26717398  0.00783406  0.80212615  1
  N  N404  1  0.25466309  0.05324659  0.93996193  1
  H  H405  1  0.49111279  0.13641257  0.82683874  1
  C  C406  1  0.29507206  0.01753596  0.79224038  1
  O  O407  1  0.25726854  0.22679484  0.92407023  1
  C  C408  1  0.37170901  0.24106790  0.79606286  1
  H  H409  1  0.27223283  0.03861475  0.91294400  1
  H  H410  1  0.40518964  0.11546916  0.89784686  1
  O  O411  1  0.37682310  0.06996022  0.79548359  1
  C  C412  1  0.28863630  0.21462362  0.94019031  1
  O  O413  1  0.30206665  0.18580449  0.91636483  1
  Cu  Cu414  1  0.31093962  0.13211227  0.94337927  1
  C  C415  1  0.40125009  0.12640318  0.85116372  1
  C  C416  1  0.43555779  0.11673770  0.81843280  1
  C  C417  1  0.45404401  0.07943957  0.83706163  1
  Cu  Cu418  1  0.39359061  0.02568909  0.83370261  1
  O  O419  1  0.43260120  0.05541498  0.86620290  1
  N  N420  1  0.46464044  0.14574533  0.81832990  1
  O  O421  1  0.36261768  0.14118958  0.95839243  1
  C  C422  1  0.36770403  0.10329776  0.82212904  1
  H  H423  1  0.39296678  0.15892082  0.85417121  1
  O  O424  1  0.31745943  0.08104978  0.96912368  1
  C  C425  1  0.43090372  0.19736738  0.77814101  1
  C  C426  1  0.42707455  0.21323607  0.83231591  1
  H  H427  1  0.44690283  0.20887732  0.86714151  1
  O  O428  1  0.33815904  0.11469663  0.82931512  1
  H  H429  1  0.36079694  0.21127801  0.96168551  1
  C  C430  1  0.39678940  0.23744941  0.84191426  1
  O  O431  1  0.48547873  0.07344297  0.83058928  1
  H  H432  1  0.42986896  0.11347358  0.77023443  1
  H  H433  1  0.28421367  0.15487534  0.75794756  1
  C  C434  1  0.46070170  0.16815882  0.76440701  1
  C  C435  1  0.29729714  0.04464279  0.75491925  1
  C  C436  1  0.30846201  0.24155889  0.97931180  1
  C  C437  1  0.34899402  0.23961253  0.97504137  1
  O  O438  1  0.49099773  0.16025979  0.99826992  1
  H  H439  1  0.43316057  0.15650275  0.99068545  1
  H  H440  1  0.44887708  0.08998659  0.99871003  1
  C  C441  1  0.05698334  0.49390598  0.86765634  1
  H  H442  1  0.06492222  0.48583899  0.91349421  1
  N  N443  1  0.01555797  0.44279907  0.86503911  1
  C  C444  1  0.03089050  0.47001516  0.76678455  1
  C  C445  1  0.24167954  0.38128728  0.93767054  1
  C  C446  1  0.02622053  0.41700909  0.91058993  1
  O  O447  1  0.02760989  0.42253848  0.96112361  1
  O  O448  1  0.13145078  0.28348828  0.89836837  1
  C  C449  1  0.02161074  0.36475951  0.82965461  1
  C  C450  1  0.23137409  0.35656402  0.89276056  1
  C  C451  1  0.03535525  0.32896957  0.81263239  1
  C  C452  1  0.06371552  0.30798622  0.84229735  1
  C  C453  1  0.07748263  0.32385321  0.89246372  1
  C  C454  1  0.06363516  0.35871601  0.91483408  1
  C  C455  1  0.11241174  0.30583084  0.92147928  1
  H  H456  1  0.16723025  0.44243395  0.92660108  1
  H  H457  1  0.07515183  0.37085621  0.95461074  1
  C  C458  1  0.03830459  0.37968407  0.88046779  1
  C  C459  1  0.14111728  0.40195994  0.83775552  1
  H  H460  1  0.07737370  0.28039568  0.82325618  1
  C  C461  1  0.04695744  0.45944144  0.83218002  1
  H  H462  1  0.06286333  0.43177321  0.83477372  1
  C  C463  1  0.18475319  0.41684006  0.91949307  1
  C  C464  1  0.17670521  0.39240587  0.87106438  1
  O  O465  1  0.11615422  0.41543944  0.86466730  1
  C  C466  1  0.21691956  0.41109864  0.95117557  1
  H  H467  1  0.19679001  0.34121488  0.81924462  1
  C  C468  1  0.19998291  0.36152428  0.85878067  1
  N  N469  1  0.11672565  0.32383360  0.97747466  1
  H  H470  1  0.09805463  0.42612906  0.77726843  1
  N  N471  1  0.14486781  0.39543345  0.77709592  1
  H  H472  1  0.13931624  0.34120450  0.96498688  1
  H  H473  1  0.14240414  0.27828568  0.99467215  1
  H  H474  1  0.16686357  0.37977843  0.76087684  1
  N  N475  1  0.24840188  0.30818125  0.82476902  1
  C  C476  1  0.01451247  0.31090149  0.75941806  1
  H  H477  1  0.24774056  0.38608527  0.78631134  1
  O  O478  1  0.42272712  0.25723368  0.93011672  1
  C  C479  1  0.39469397  0.25477488  0.90132066  1
  O  O480  1  0.28826353  0.31918932  0.90656621  1
  H  H481  1  0.34833014  0.26215099  0.79917091  1
  H  H482  1  0.26581032  0.37617100  0.96357088  1
  H  H483  1  0.27925138  0.37370072  0.84031594  1
  N  N484  1  0.35853945  0.26001463  0.91885205  1
  H  H485  1  0.25187257  0.27902521  0.82047217  1
  C  C486  1  0.27439323  0.37009166  0.79202315  1
  H  H487  1  0.29550342  0.31320755  0.78187518  1
  O  O488  1  0.47394001  0.30359015  0.96667208  1
  H  H489  1  0.29743918  0.27179520  0.97688638  1
  C  C490  1  0.26153874  0.32590967  0.87773259  1
  C  C491  1  0.26871863  0.32835638  0.77792507  1
  H  H492  1  0.34293995  0.25312616  0.88357873  1
  C  C493  1  0.30769383  0.39415869  0.75823792  1
  O  O494  1  0.30894598  0.42893291  0.75481260  1
  Cu  Cu495  1  0.20371825  0.59946558  0.21483475  1
  N  N496  1  0.11178590  0.61840077  0.05158416  1
  O  O497  1  0.05710842  0.67772050  0.20532380  1
  C  C498  1  0.10509340  0.58194855  0.08087829  1
  O  O499  1  0.22074801  0.60614153  0.14121876  1
  Cu  Cu500  1  0.13417882  0.60984049  0.18479360  1
  O  O501  1  0.11140466  0.57615256  0.13543822  1
  C  C502  1  0.08763669  0.69777952  0.20324916  1
  C  C503  1  0.05684370  0.53163003  0.08103567  1
  C  C504  1  0.20442848  0.59139027  0.09759236  1
  H  H505  1  0.06613255  0.52976080  0.12731371  1
  H  H506  1  0.16524278  0.63831864  0.10143106  1
  O  O507  1  0.21275597  0.56075063  0.07086283  1
  C  C508  1  0.17750926  0.61582946  0.07025913  1
  C  C509  1  0.07451046  0.55935087  0.04782503  1
  Cu  Cu510  1  0.02234430  0.67231988  0.14656042  1
  C  C511  1  0.17840679  0.67668883  0.20092945  1
  O  O512  1  0.19665808  0.69008735  0.15950557  1
  O  O513  1  0.17056968  0.64183999  0.21100812  1
  O  O514  1  0.09318638  0.72060301  0.16608282  1
  C  C515  1  0.14517469  0.59795564  0.04111716  1
  H  H516  1  0.14983481  0.53238251  0.07031033  1
  C  C517  1  0.02921144  0.50677531  0.05780743  1
  H  H518  1  0.15496345  0.73115157  0.22346984  1
  C  C519  1  0.15626058  0.70099096  0.24038624  1
  H  H520  1  0.19028778  0.63468522  0.03738550  1
  Cu  Cu521  1  0.24024304  0.67415950  0.13270396  1
  H  H522  1  0.09796587  0.62275080  0.01456753  1
  C  C523  1  0.01436052  0.51518351  0.00536636  1
  O  O524  1  0.20421723  0.73662599  0.01533266  1
  O  O525  1  0.00038880  0.68632474  0.00038224  1
  H  H526  1  0.00917832  0.59448983  0.02548130  1
  C  C527  1  0.33375558  0.50472108  0.18394437  1
  Cu  Cu528  1  0.26037423  0.71441486  0.22344716  1
  O  O529  1  0.29667474  0.71497288  0.06368632  1
  O  O530  1  0.28066489  0.65826851  0.09835708  1
  C  C531  1  0.29944768  0.67869963  0.06614993  1
  H  H532  1  0.32190879  0.60968115  0.08160185  1
  C  C533  1  0.34156032  0.62185384  0.04991437  1
  C  C534  1  0.35675865  0.54385626  0.10202631  1
  C  C535  1  0.36136492  0.52619565  0.15575112  1
  C  C536  1  0.38189106  0.63331888  0.08113925  1
  O  O537  1  0.38267611  0.62367950  0.13443787  1
  C  C538  1  0.32704900  0.65925167  0.02671875  1
  C  C539  1  0.32340389  0.53867729  0.07285071  1
  H  H540  1  0.37826372  0.56219368  0.08363323  1
  O  O541  1  0.40460588  0.64961912  0.05384807  1
  C  C542  1  0.31565342  0.55793433  0.01554252  1
  Cu  Cu543  1  0.42488126  0.61452553  0.17604685  1
  N  N544  1  0.33745110  0.59050103  0.00657540  1
  O  O545  1  0.42044839  0.55896341  0.17117777  1
  C  C546  1  0.39504368  0.53868778  0.19263226  1
  Cu  Cu547  1  0.27851141  0.73871220  0.12306687  1
  O  O548  1  0.46810848  0.60826191  0.21856434  1
  H  H549  1  0.35052381  0.67985186  0.01287764  1
  C  C550  1  0.29893471  0.51233206  0.09630594  1
  H  H551  1  0.27365517  0.50471752  0.07040752  1
  O  O552  1  0.47594956  0.66706549  0.24932058  1
  N  N553  1  0.39029784  0.52751711  0.24409143  1
  Cu  Cu554  1  0.16524923  0.99980590  0.13187532  1
  O  O555  1  0.14439385  0.96024888  0.09057128  1
  O  O556  1  0.00655022  0.90367755  0.07627157  1
  O  O557  1  0.01472228  0.91042130  0.17026145  1
  C  C558  1  0.13164947  0.89993368  0.14376966  1
  H  H559  1  0.14062656  0.84281552  0.13380818  1
  C  C560  1  0.13713249  0.86699168  0.10386951  1
  H  H561  1  0.19124203  0.89522374  0.16667434  1
  N  N562  1  0.16355958  0.89878677  0.18395789  1
  C  C563  1  0.12222341  0.93707080  0.11201180  1
  H  H564  1  0.11121806  0.89450373  0.17789410  1
  H  H565  1  0.16283653  0.87102116  0.07786236  1
  O  O566  1  0.08914291  0.94438688  0.11120431  1
  C  C567  1  0.17370735  0.93583980  0.20792321  1
  O  O568  1  0.21156226  0.80270755  0.17717426  1
  H  H569  1  0.23025836  0.87658267  0.21252368  1
  O  O570  1  0.15832377  0.96737622  0.19980431  1
  C  C571  1  0.10674420  0.85943091  0.05365583  1
  Cu  Cu572  1  0.01237117  0.95249804  0.22113623  1
  Cu  Cu573  1  0.05556396  0.92100275  0.05717118  1
  O  O574  1  0.04071211  0.97283870  0.03905662  1
  O  O575  1  0.07342202  0.86820360  0.06663746  1
  C  C576  1  0.23652928  0.79225745  0.20498597  1
  H  H577  1  0.08633353  0.96226264  0.23698634  1
  O  O578  1  0.11590944  0.85197305  0.00567866  1
  O  O579  1  0.24581253  0.88959748  0.11021182  1
  C  C580  1  0.20417776  0.92828582  0.24841608  1
  C  C581  1  0.23015735  0.89812890  0.24891388  1
  O  O582  1  0.49616712  0.92537601  0.03421817  1
  C  C583  1  0.47737815  0.95130330  0.01972480  1
  H  H584  1  0.48642349  0.92239931  0.21327218  1
  H  H585  1  0.49419057  0.95452546  0.13048604  1
  O  O586  1  0.25816651  0.76297979  0.18979457  1
  C  C587  1  0.26053800  0.90135717  0.06946702  1
  H  H588  1  0.30348569  0.82616369  0.23788843  1
  C  C589  1  0.46446903  0.98061968  0.06325175  1
  C  C590  1  0.47690454  0.97759398  0.12025302  1
  H  H591  1  0.41785815  0.94222279  0.00107811  1
  N  N592  1  0.28074969  0.84166419  0.24997722  1
  O  O593  1  0.27467954  0.91455808  0.02840453  1
  C  C594  1  0.09031010  0.63040054  0.42979618  1
  C  C595  1  0.09184550  0.64882470  0.37528158  1
  C  C596  1  0.05978595  0.61418986  0.45562869  1
  C  C597  1  0.05948437  0.65141332  0.34206026  1
  N  N598  1  0.13038360  0.53978125  0.44187711  1
  C  C599  1  0.12508003  0.67051736  0.35617183  1
  O  O600  1  0.15323802  0.66516358  0.37931947  1
  C  C601  1  0.15768172  0.55999674  0.46559995  1
  N  N602  1  0.11179170  0.69710036  0.31308601  1
  H  H603  1  0.11325718  0.63201540  0.46146686  1
  C  C604  1  0.12961530  0.53831303  0.37543712  1
  C  C605  1  0.19354580  0.54175712  0.44769920  1
  C  C606  1  0.22826167  0.56211407  0.44892506  1
  H  H607  1  0.15754920  0.59594861  0.37850475  1
  H  H608  1  0.15203206  0.52089777  0.35537025  1
  H  H609  1  0.05898267  0.66741190  0.30028352  1
  C  C610  1  0.13550055  0.57898897  0.35475956  1
  C  C611  1  0.02734797  0.61793882  0.42337727  1
  C  C612  1  0.02948301  0.63652045  0.36871644  1
  H  H613  1  0.10906223  0.59434086  0.36201347  1
  C  C614  1  0.14542500  0.57904341  0.29241758  1
  O  O615  1  0.17894760  0.57764925  0.28208748  1
  H  H616  1  0.10466163  0.54575854  0.45595658  1
  H  H617  1  0.11684209  0.72665212  0.32552841  1
  H  H618  1  0.22895755  0.58968420  0.47217260  1
  H  H619  1  0.11465423  0.65434116  0.26310027  1
  O  O620  1  0.23283575  0.73116469  0.32831583  1
  C  C621  1  0.19404059  0.50404602  0.42134343  1
  O  O622  1  0.24277516  0.67931382  0.46200609  1
  H  H623  1  0.17209073  0.70264836  0.28229613  1
  C  C624  1  0.11749256  0.68578291  0.25197988  1
  C  C625  1  0.09128332  0.51492326  0.36477213  1
  O  O626  1  0.06361799  0.53164768  0.36837486  1
  H  H627  1  0.00027801  0.60745501  0.43587617  1
  H  H628  1  0.13919132  0.72433192  0.48422870  1
  C  C629  1  0.11028885  0.72381516  0.48443556  1
  O  O630  1  0.12187498  0.57963512  0.25200420  1
  Cu  Cu631  1  0.23800226  0.69998148  0.39121441  1
  H  H632  1  0.00593079  0.69477424  0.31024763  1
  C  C633  1  0.04891776  0.74337204  0.45371255  1
  C  C634  1  0.08602910  0.74508690  0.44790772  1
  O  O635  1  0.42057966  0.50287210  0.46316669  1
  C  C636  1  0.25940636  0.54675620  0.42205258  1
  H  H637  1  0.28196373  0.50050973  0.36750860  1
  C  C638  1  0.25731929  0.51172249  0.39009461  1
  O  O639  1  0.25713033  0.65519306  0.35171479  1
  O  O640  1  0.26663944  0.66419040  0.25815665  1
  O  O641  1  0.49589353  0.67996636  0.42841647  1
  H  H642  1  0.27978021  0.57956190  0.34776499  1
  O  O643  1  0.46170961  0.54217056  0.32811521  1
  C  C644  1  0.27715496  0.65483104  0.30804429  1
  C  C645  1  0.29567538  0.57065602  0.42726972  1
  H  H646  1  0.32054813  0.62924042  0.40934161  1
  N  N647  1  0.30352226  0.58183589  0.36979429  1
  C  C648  1  0.31580257  0.64340800  0.31624023  1
  C  C649  1  0.32682368  0.61781254  0.36521481  1
  H  H650  1  0.33386916  0.66952844  0.31517315  1
  H  H651  1  0.32362758  0.62749787  0.27679551  1
  Cu  Cu652  1  0.43491119  0.53550175  0.39992117  1
  C  C653  1  0.36839136  0.60211661  0.35371416  1
  H  H654  1  0.35410734  0.55779010  0.39190295  1
  O  O655  1  0.37740296  0.56436897  0.36939570  1
  O  O656  1  0.39060559  0.62097561  0.32812194  1
  H  H657  1  0.47724403  0.61506447  0.35169030  1
  C  C658  1  0.46803489  0.66736312  0.45495701  1
  O  O659  1  0.43735383  0.67615374  0.44270084  1
  O  O660  1  0.31429692  0.57644960  0.46919707  1
  C  C661  1  0.49566432  0.61585189  0.31578278  1
  H  H662  1  0.40795060  0.53575095  0.27297346  1
  O  O663  1  0.45813002  0.57239885  0.44465820  1
  C  C664  1  0.48980545  0.57190196  0.46659400  1
  C  C665  1  0.47744339  0.63335115  0.25798597  1
  O  O666  1  0.35988434  0.74739229  0.36129779  1
  C  C667  1  0.35464863  0.74839795  0.31128221  1
  C  C668  1  0.49681071  0.54218112  0.32608266  1
  O  O669  1  0.21342613  0.99909533  0.41388942  1
  H  H670  1  0.03158450  0.75748366  0.41988540  1
  H  H671  1  0.06149169  0.75705871  0.36032135  1
  C  C672  1  0.23675718  0.98698242  0.38410813  1
  C  C673  1  0.00755154  0.79796072  0.34316691  1
  C  C674  1  0.10609111  0.76755891  0.40256009  1
  O  O675  1  0.21007889  0.78107358  0.37385402  1
  C  C676  1  0.23207481  0.76723278  0.33801607  1
  Cu  Cu677  1  0.16540946  0.80644721  0.35360755  1
  O  O678  1  0.13705074  0.78107753  0.41366949  1
  N  N679  1  0.08475909  0.77267498  0.35249693  1
  C  C680  1  0.07487527  0.81363219  0.33669601  1
  H  H681  1  0.07833353  0.82874024  0.38027858  1
  O  O682  1  0.13523365  0.80699678  0.28983365  1
  C  C683  1  0.05290715  0.89298831  0.40629327  1
  H  H684  1  0.02229985  0.89678180  0.40861953  1
  H  H685  1  0.12897924  0.91295439  0.32072764  1
  C  C686  1  0.11386612  0.90159757  0.36063627  1
  C  C687  1  0.07585462  0.90394312  0.36258849  1
  C  C688  1  0.03826275  0.81612944  0.31026812  1
  O  O689  1  0.18854504  0.87844359  0.35641297  1
  C  C690  1  0.13129812  0.88605175  0.41016496  1
  C  C691  1  0.17330258  0.88213886  0.40272178  1
  C  C692  1  0.20807543  0.95892148  0.28999292  1
  C  C693  1  0.07235340  0.87084027  0.45099011  1
  C  C694  1  0.11053631  0.86728169  0.45331962  1
  H  H695  1  0.21997331  0.91287337  0.42920850  1
  N  N696  1  0.18894694  0.87239794  0.45937969  1
  C  C697  1  0.23308287  0.95545223  0.33394037  1
  C  C698  1  0.10626594  0.82771637  0.29078012  1
  C  C699  1  0.06142049  0.93051809  0.30844554  1
  H  H700  1  0.03112488  0.84655011  0.29635358  1
  H  H701  1  0.10343054  0.97619584  0.35812250  1
  O  O702  1  0.02991100  0.92526104  0.28758046  1
  H  H703  1  0.22785214  0.83951088  0.28003138  1
  C  C704  1  0.08041679  0.97577001  0.32576044  1
  N  N705  1  0.08996613  0.95006761  0.27933006  1
  H  H706  1  0.18948853  0.98372371  0.28595361  1
  C  C707  1  0.22324150  0.89336597  0.46801205  1
  H  H708  1  0.12436002  0.84820140  0.48716596  1
  H  H709  1  0.16788649  0.88599793  0.48116265  1
  C  C710  1  0.24855685  0.81710391  0.26348080  1
  H  H711  1  0.03536697  0.80066719  0.26514857  1
  C  C712  1  0.05071094  0.84795109  0.49707742  1
  O  O713  1  0.10308951  0.85468840  0.25805128  1
  N  N714  1  0.27492302  0.99718118  0.37622709  1
  O  O715  1  0.34694945  0.75118900  0.26334836  1
  H  H716  1  0.25493507  0.85228448  0.41949636  1
  C  C717  1  0.25625956  0.86886108  0.46200086  1
  O  O718  1  0.36594568  0.96886771  0.41637247  1
  C  C719  1  0.42320011  0.91067135  0.27499931  1
  C  C720  1  0.28809811  0.86871661  0.29344458  1
  H  H721  1  0.28490988  0.98587953  0.33933181  1
  C  C722  1  0.26169332  0.79072995  0.31202507  1
  O  O723  1  0.31197943  0.86998310  0.33112502  1
  C  C724  1  0.49129350  0.93291412  0.25765424  1
  C  C725  1  0.33768283  0.96830207  0.39200172  1
  H  H726  1  0.28494573  0.96838586  0.45031796  1
  H  H727  1  0.27706891  0.92279123  0.37417942  1
  C  C728  1  0.45739782  0.94000946  0.28773610  1
  C  C729  1  0.25739771  0.92457289  0.33703092  1
  C  C730  1  0.25784348  0.89717076  0.29180471  1
  H  H731  1  0.44511392  0.96977486  0.27397516  1
  H  H732  1  0.28267100  0.77056626  0.29552020  1
  H  H733  1  0.27803574  0.80809621  0.34408141  1
  O  O734  1  0.39166210  0.92295250  0.29125609  1
  O  O735  1  0.33445387  0.94900933  0.34419119  1
  H  H736  1  0.45943731  0.94060209  0.33747822  1
  C  C737  1  0.30156491  0.98905594  0.42226070  1
  H  H738  1  0.28180445  0.88595621  0.46178080  1
  Cu  Cu739  1  0.35390800  0.90045062  0.31388665  1
  O  O740  1  0.42735269  0.88014281  0.25248231  1
  O  O741  1  0.16765601  0.60117627  0.62423790  1
  Cu  Cu742  1  0.12794235  0.58336988  0.57654663  1
  O  O743  1  0.09984290  0.58247816  0.64462573  1
  C  C744  1  0.11572564  0.68908759  0.58242038  1
  C  C745  1  0.09387302  0.71040759  0.53596396  1
  C  C746  1  0.17875554  0.66794012  0.58920037  1
  H  H747  1  0.18314808  0.69622633  0.60657901  1
  C  C748  1  0.17426418  0.63525433  0.64126502  1
  N  N749  1  0.14345245  0.66761511  0.55581856  1
  O  O750  1  0.18055301  0.64170314  0.68945721  1
  H  H751  1  0.04661955  0.69443264  0.58404907  1
  C  C752  1  0.06551677  0.58423761  0.64813040  1
  C  C753  1  0.05606587  0.71104576  0.54512196  1
  O  O754  1  0.04721387  0.55873507  0.67366279  1
  C  C755  1  0.03774461  0.62151988  0.56450876  1
  O  O756  1  0.08835640  0.56899142  0.53017196  1
  C  C757  1  0.04904173  0.62049755  0.62575094  1
  C  C758  1  0.20547423  0.65780556  0.54172794  1
  H  H759  1  0.22912912  0.64280865  0.56355017  1
  O  O760  1  0.10577670  0.68932179  0.63264328  1
  H  H761  1  0.02050516  0.55980422  0.55703183  1
  H  H762  1  0.06948879  0.64468989  0.63510854  1
  H  H763  1  0.11910013  0.73106424  0.66208878  1
  H  H764  1  0.07167888  0.71506746  0.72691229  1
  H  H765  1  0.19313273  0.63604011  0.51264989  1
  N  N766  1  0.02523736  0.58715021  0.53524343  1
  H  H767  1  0.02133389  0.64642643  0.55018153  1
  H  H768  1  0.02575916  0.62388723  0.65889596  1
  H  H769  1  0.14554128  0.68017932  0.51546251  1
  C  C770  1  0.06233993  0.59274875  0.51529196  1
  Cu  Cu771  1  0.06960250  0.53240263  0.73019508  1
  H  H772  1  0.00698714  0.71641493  0.62354018  1
  O  O773  1  0.15547258  0.58636598  0.50216842  1
  C  C774  1  0.22014162  0.68685604  0.50202136  1
  O  O775  1  0.20386126  0.71908445  0.50702287  1
  C  C776  1  0.03136803  0.72525287  0.50211020  1
  C  C777  1  0.48485884  0.56705044  0.63298738  1
  N  N778  1  0.49551246  0.65141222  0.56143100  1
  H  H779  1  0.45547588  0.62226149  0.52731913  1
  O  O780  1  0.45581855  0.55118955  0.63652427  1
  C  C781  1  0.47990168  0.63582094  0.50647497  1
  C  C782  1  0.13868001  0.75105631  0.74621760  1
  O  O783  1  0.00906671  0.75602051  0.68178669  1
  H  H784  1  0.00371648  0.82266452  0.52340530  1
  O  O785  1  0.18972425  0.82057657  0.64762241  1
  Cu  Cu786  1  0.21725214  0.77052745  0.52636465  1
  O  O787  1  0.23979222  0.97105617  0.72079772  1
  C  C788  1  0.17293119  0.79035316  0.63175575  1
  H  H789  1  0.02363051  0.90862180  0.50599853  1
  N  N790  1  0.12351781  0.75779286  0.68840923  1
  C  C791  1  0.22552829  0.91835488  0.52009058  1
  C  C792  1  0.02657974  0.98948489  0.63763074  1
  O  O793  1  0.12995754  0.97903518  0.58934082  1
  Cu  Cu794  1  0.19496957  0.86605284  0.60050895  1
  O  O795  1  0.20107717  0.91192574  0.55518695  1
  H  H796  1  0.07944412  0.80084827  0.63373184  1
  C  C797  1  0.01946392  0.99094963  0.53230652  1
  N  N798  1  0.02297031  0.87765826  0.50965523  1
  N  N799  1  0.01913198  0.94403209  0.73852236  1
  C  C800  1  0.14208450  0.97967942  0.63633429  1
  C  C801  1  0.00327824  0.78684231  0.65964031  1
  H  H802  1  0.13612771  0.80894076  0.70056215  1
  O  O803  1  0.22729068  0.82311443  0.53315409  1
  C  C804  1  0.10716385  0.80518531  0.61846161  1
  O  O805  1  0.02330228  0.95700213  0.52435327  1
  H  H806  1  0.02360508  0.95816306  0.63128502  1
  C  C807  1  0.11557406  0.85182536  0.61115938  1
  C  C808  1  0.13679432  0.79222734  0.66007133  1
  O  O809  1  0.14341777  0.86094326  0.57833946  1
  O  O810  1  0.14245651  0.95089019  0.67048299  1
  H  H811  1  0.11007429  0.79147733  0.57624527  1
  O  O812  1  0.09857520  0.87733781  0.63328985  1
  O  O813  1  0.18413127  0.76523557  0.59697158  1
  O  O814  1  0.05880502  0.82027728  0.52459459  1
  O  O815  1  0.24980428  0.94416863  0.53172022  1
  Cu  Cu816  1  0.24168047  0.98710946  0.57170916  1
  O  O817  1  0.21629431  0.90987329  0.74323545  1
  Cu  Cu818  1  0.11121001  0.94044998  0.73506182  1
  C  C819  1  0.22851703  0.93980388  0.73065316  1
  O  O820  1  0.28545301  0.83323037  0.54283738  1
  C  C821  1  0.25730103  0.83855705  0.51949339  1
  C  C822  1  0.16342828  0.62312827  0.85112622  1
  C  C823  1  0.21147996  0.63102242  0.83596574  1
  O  O824  1  0.15493992  0.60171263  0.89441515  1
  H  H825  1  0.22025154  0.65518630  0.80423934  1
  C  C826  1  0.13750469  0.65250953  0.82005164  1
  C  C827  1  0.14910160  0.68835128  0.79760728  1
  H  H828  1  0.17676062  0.69885354  0.80680650  1
  Cu  Cu829  1  0.14620381  0.54771911  0.89774977  1
  C  C830  1  0.10036944  0.64214484  0.81434905  1
  H  H831  1  0.08941221  0.61634005  0.83588731  1
  C  C832  1  0.07507966  0.66612163  0.78338503  1
  C  C833  1  0.24290403  0.61033091  0.86080517  1
  H  H834  1  0.23485224  0.57974460  0.86459228  1
  H  H835  1  0.07427988  0.58866778  0.96454013  1
  C  C836  1  0.02936608  0.54651943  0.97452145  1
  O  O837  1  0.09892386  0.54766600  0.86615179  1
  N  N838  1  0.18500990  0.61153289  0.80148061  1
  C  C839  1  0.03574980  0.65399636  0.78310494  1
  O  O840  1  0.21336320  0.51924529  0.95902671  1
  O  O841  1  0.02925163  0.62045942  0.79111798  1
  H  H842  1  0.03518444  0.51401499  0.87598229  1
  N  N843  1  0.02414912  0.59697040  0.90089831  1
  C  C844  1  0.08817480  0.51806853  0.84075422  1
  H  H845  1  0.02133267  0.64026869  0.93381663  1
  O  O846  1  0.23430297  0.61287142  0.96504629  1
  H  H847  1  0.14656205  0.59350699  0.99441592  1
  C  C848  1  0.12529093  0.71134864  0.76443317  1
  H  H849  1  0.02580836  0.60371724  0.85836618  1
  C  C850  1  0.18396434  0.50233949  0.97191117  1
  O  O851  1  0.15632985  0.50786951  0.94204560  1
  O  O852  1  0.09649319  0.51239958  0.78999950  1
  O  O853  1  0.08028730  0.66006368  0.93826313  1
  C  C854  1  0.08482546  0.68846038  0.92189982  1
  N  N855  1  0.01264198  0.68678486  0.77534481  1
  C  C856  1  0.00895560  0.56175488  0.92269021  1
  H  H857  1  0.02306609  0.71400331  0.76873624  1
  Cu  Cu858  1  0.23543434  0.55966133  0.99867261  1
  C  C859  1  0.06068047  0.56745886  0.99227125  1
  O  O860  1  0.02643178  0.50580069  0.75657619  1
  C  C861  1  0.08960437  0.69823033  0.75556880  1
  H  H862  1  0.17786073  0.62258268  0.76088794  1
  H  H863  1  0.26688519  0.61112351  0.83147106  1
  C  C864  1  0.25269223  0.62275950  0.92151758  1
  O  O865  1  0.28267704  0.63854959  0.92491950  1
  H  H866  1  0.33322230  0.59874146  0.96372003  1
  H  H867  1  0.31077260  0.65253085  0.98577958  1
  O  O868  1  0.28875007  0.54952243  0.98726551  1
  H  H869  1  0.17820748  0.78207438  0.99979447  1
  C  C870  1  0.04050433  0.99379928  0.99416428  1
  O  O871  1  0.12783065  0.98732509  0.77417199  1
  C  C872  1  0.00991929  0.92309015  0.79228451  1
  H  H873  1  0.01543520  0.86554269  0.82886924  1
  C  C874  1  0.02342754  0.88317477  0.79009279  1
  C  C875  1  0.06728495  0.88787473  0.79273191  1
  O  O876  1  0.08158154  0.92309633  0.79158109  1
  O  O877  1  0.08479557  0.85882919  0.79645283  1
  H  H878  1  0.02647653  0.93938836  0.82377573  1
  O  O879  1  0.06533505  0.99385036  0.95997100  1
  H  H880  1  0.16925066  0.99570210  0.85887541  1
  O  O881  1  0.16098747  0.76833946  0.77249449  1
  H  H882  1  0.01253428  0.86654688  0.75137871  1
  C  C883  1  0.20691698  0.76700429  0.99216499  1
  H  H884  1  0.22944671  0.78237332  0.96680358  1
  C  C885  1  0.02896251  0.98429630  0.75178578  1
  H  H886  1  0.48066002  0.96699523  0.92782809  1
  O  O887  1  0.37050777  0.97590824  0.93699043  1
  O  O888  1  0.36353165  0.89809155  0.94322144  1
  O  O889  1  0.39113042  0.84967006  0.90052683  1
  C  C890  1  0.32479811  0.99569826  0.82022175  1
  O  O891  1  0.41371736  0.97913279  0.87363669  1
  O  O892  1  0.35571324  0.99456973  0.79784023  1
  O  O893  1  0.31522432  0.97610965  0.86359416  1
  C  C894  1  0.39261349  0.87979311  0.92622685  1
  N  N895  1  0.46173875  0.96166214  0.96329855  1
  C  C896  1  0.43064374  0.90143466  0.93519568  1
  Cu  Cu897  1  0.33813565  0.93873087  0.90689477  1
  C  C898  1  0.42699840  0.94270709  0.95670048  1
  H  H899  1  0.44468876  0.88440174  0.97039247  1
  H  H900  1  0.44514386  0.90275495  0.89436160  1
  C  C901  1  0.40308747  0.96977957  0.92271137  1
  O  O902  1  0.63397467  0.04376161  0.16257699  1
  N  N903  1  0.66917304  0.06500566  0.04416815  1
  C  C904  1  0.65757449  0.06671204  0.16031272  1
  C  C905  1  0.68490734  0.07095887  0.10438103  1
  C  C906  1  0.71585024  0.04220776  0.10933626  1
  C  C907  1  0.70261606  0.21132940  0.09272399  1
  H  H908  1  0.69546562  0.10005015  0.09816721  1
  O  O909  1  0.66647598  0.08711901  0.20525342  1
  C  C910  1  0.71813163  0.17317129  0.10152089  1
  H  H911  1  0.65103740  0.04425266  0.03605732  1
  H  H912  1  0.67101468  0.20515670  0.08663141  1
  O  O913  1  0.71805573  0.15867651  0.15282891  1
  H  H914  1  0.70461365  0.22907375  0.13447150  1
  H  H915  1  0.70343651  0.01352563  0.10024946  1
  C  C916  1  0.62969075  0.21903233  0.19088205  1
  H  H917  1  0.64934233  0.00005874  0.01415002  1
  H  H918  1  0.73585734  0.04914432  0.07500904  1
  O  O919  1  0.72785586  0.15292473  0.05913032  1
  O  O920  1  0.72965042  0.01025578  0.19749079  1
  O  O921  1  0.60564100  0.21576638  0.15851769  1
  C  C922  1  0.73453496  0.03993618  0.16448796  1
  C  C923  1  0.71273807  0.23791132  0.04277909  1
  O  O924  1  0.65595623  0.22140831  0.21909845  1
  H  H925  1  0.52287980  0.24530305  0.06486349  1
  O  O926  1  0.52159725  0.18417369  0.07904052  1
  C  C927  1  0.50749204  0.17412403  0.03713947  1
  Cu  Cu928  1  0.75827509  0.15073970  0.19403659  1
  C  C929  1  0.96574431  0.04079758  0.05926352  1
  O  O930  1  0.75830982  0.06479802  0.17642957  1
  O  O931  1  0.82276211  0.08788275  0.14867594  1
  O  O932  1  0.80995442  0.14718991  0.17712127  1
  C  C933  1  0.82155800  0.12299934  0.13939249  1
  Cu  Cu934  1  0.80228638  0.05669032  0.21008881  1
  H  H935  1  0.86139022  0.11204551  0.07716789  1
  C  C936  1  0.83797004  0.13317735  0.08242165  1
  N  N937  1  0.85888846  0.16919854  0.09044298  1
  C  C938  1  0.89743704  0.15911014  0.08648924  1
  O  O939  1  0.91482677  0.14369137  0.12265689  1
  C  C940  1  0.94302216  0.02105000  0.10468576  1
  H  H941  1  0.92873676  0.07851908  0.13711364  1
  C  C942  1  0.92541981  0.04713847  0.14192929  1
  C  C943  1  0.90113772  0.03165789  0.18265064  1
  N  N944  1  0.89097312  0.09610970  0.22010915  1
  H  H945  1  0.87081388  0.11761269  0.22187420  1
  C  C946  1  0.87937499  0.05662716  0.22874494  1
  H  H947  1  0.85023511  0.18564468  0.12543661  1
  C  C948  1  0.81260170  0.13424947  0.03145376  1
  H  H949  1  0.78507719  0.11975190  0.04009240  1
  H  H950  1  0.95476028  0.12904505  0.04043013  1
  C  C951  1  0.91563356  0.17613539  0.03284588  1
  H  H952  1  0.83317357  0.01758602  0.01805564  1
  C  C953  1  0.94710735  0.15585196  0.01560080  1
  H  H954  1  0.87935571  0.22114187  0.01925743  1
  O  O955  1  0.98833374  0.13385121  0.23154851  1
  N  N956  1  0.97313334  0.01348467  0.01605785  1
  O  O957  1  0.84666220  0.04950320  0.24737866  1
  O  O958  1  0.97245801  0.07445980  0.06327729  1
  H  H959  1  0.80975530  0.16373851  0.01085675  1
  C  C960  1  0.90542389  0.20914224  0.00259388  1
  H  H961  1  0.94148763  0.24320080  0.05352454  1
  H  H962  1  0.76859457  0.24376451  0.15331608  1
  O  O963  1  0.79267018  0.21472464  0.23973570  1
  O  O964  1  0.83130742  0.23826626  0.13054515  1
  H  H965  1  0.78339024  0.02300087  0.00026029  1
  O  O966  1  0.51313251  0.26822068  0.22734678  1
  C  C967  1  0.51981595  0.30782222  0.04512573  1
  H  H968  1  0.57395217  0.28325543  0.18076334  1
  O  O969  1  0.62778124  0.48469815  0.08882902  1
  C  C970  1  0.51499335  0.27413989  0.08390381  1
  H  H971  1  0.53345670  0.27498376  0.12412825  1
  Cu  Cu972  1  0.64626185  0.47578011  0.16589399  1
  C  C973  1  0.64887575  0.31680490  0.04633390  1
  H  H974  1  0.58996411  0.42599739  0.08335444  1
  C  C975  1  0.56307649  0.30954109  0.20605368  1
  H  H976  1  0.68497058  0.33224538  0.13641714  1
  C  C977  1  0.70060352  0.31020790  0.16134702  1
  C  C978  1  0.73130015  0.29020318  0.13935385  1
  O  O979  1  0.54560113  0.38309258  0.09774352  1
  C  C980  1  0.59867200  0.41827829  0.04040846  1
  C  C981  1  0.55773508  0.36431527  0.05794451  1
  H  H982  1  0.55370782  0.33409301  0.17565849  1
  H  H983  1  0.63599451  0.29559154  0.18577979  1
  O  O984  1  0.71437608  0.45337506  0.10723999  1
  H  H985  1  0.69320455  0.26387611  0.03959763  1
  C  C986  1  0.63815150  0.47792480  0.03760905  1
  C  C987  1  0.72966544  0.48269116  0.08330467  1
  C  C988  1  0.62426346  0.44091259  0.00838025  1
  O  O989  1  0.65560180  0.33514932  0.00582996  1
  N  N990  1  0.55801750  0.32380668  0.04884582  1
  O  O991  1  0.70612959  0.41371301  0.21299674  1
  H  H992  1  0.68952971  0.46138378  0.00977948  1
  O  O993  1  0.59807821  0.39288935  0.20373529  1
  C  C994  1  0.58273190  0.38563098  0.01488340  1
  O  O995  1  0.67009067  0.45877317  0.23786989  1
  O  O996  1  0.64373181  0.29689119  0.08724169  1
  H  H997  1  0.50458484  0.33484965  0.06180366  1
  C  C998  1  0.68713548  0.49469387  0.00338968  1
  C  C999  1  0.53007676  0.29856235  0.23972424  1
  N  N1000  1  0.62989635  0.31141983  0.22106526  1
  C  C1001  1  0.69177884  0.29884638  0.21986411  1
  N  N1002  1  0.74833098  0.25928901  0.04828978  1
  Cu  Cu1003  1  0.73738578  0.41264587  0.14811221  1
  C  C1004  1  0.59315358  0.32528412  0.24265219  1
  C  C1005  1  0.74175632  0.25369841  0.23341433  1
  C  C1006  1  0.69945091  0.44116517  0.24355163  1
  C  C1007  1  0.74310941  0.29677467  0.07247735  1
  O  O1008  1  0.74813651  0.32786973  0.05238929  1
  C  C1009  1  0.74897929  0.26243509  0.17448034  1
  C  C1010  1  0.59954704  0.37252120  0.24455916  1
  H  H1011  1  0.57837175  0.32068845  0.01927181  1
  Cu  Cu1012  1  0.99810090  0.34697029  0.11815437  1
  C  C1013  1  0.99027607  0.28533372  0.22351860  1
  H  H1014  1  0.96565012  0.44182392  0.17012683  1
  C  C1015  1  0.94110558  0.30066970  0.01964810  1
  H  H1016  1  0.80898139  0.31904236  0.22854883  1
  O  O1017  1  0.91017590  0.49538671  0.13132445  1
  C  C1018  1  0.82725525  0.30726842  0.14243650  1
  O  O1019  1  0.76167342  0.48643913  0.08462637  1
  O  O1020  1  0.88826448  0.43497875  0.13140841  1
  C  C1021  1  0.97491921  0.45571296  0.08223998  1
  O  O1022  1  0.91264321  0.36409376  0.03031185  1
  H  H1023  1  0.80272557  0.30574019  0.11778094  1
  H  H1024  1  0.95791648  0.35216957  0.20200415  1
  H  H1025  1  0.96004857  0.46368924  0.03796947  1
  O  O1026  1  0.86935319  0.26062577  0.19420049  1
  Cu  Cu1027  1  0.84526291  0.43496726  0.17724465  1
  H  H1028  1  0.87767383  0.35726627  0.19251240  1
  C  C1029  1  0.93152806  0.34134023  0.05284104  1
  N  N1030  1  0.85921042  0.34551582  0.21805837  1
  O  O1031  1  0.76943659  0.37235042  0.18287934  1
  C  C1032  1  0.95167232  0.27258325  0.06660415  1
  C  C1033  1  0.84417631  0.26576093  0.15750988  1
  O  O1034  1  0.94686697  0.34834717  0.10145771  1
  O  O1035  1  0.95937304  0.27656367  0.22397177  1
  O  O1036  1  0.82127114  0.39016776  0.14220623  1
  C  C1037  1  0.98336011  0.39587964  0.23415008  1
  C  C1038  1  0.91361945  0.45936862  0.13346354  1
  H  H1039  1  0.93516296  0.27832027  0.10723719  1
  H  H1040  1  0.84746382  0.31846937  0.11108335  1
  H  H1041  1  0.76135212  0.26675729  0.00916487  1
  C  C1042  1  0.80248841  0.36796363  0.17086202  1
  C  C1043  1  0.82380740  0.33445001  0.19214964  1
  N  N1044  1  0.98450224  0.35775406  0.20734865  1
  H  H1045  1  0.94604307  0.40837873  0.12031416  1
  C  C1046  1  0.95021863  0.44070434  0.12885062  1
  O  O1047  1  0.83082996  0.48134165  0.21173133  1
  C  C1048  1  0.99095429  0.27149018  0.07869642  1
  H  H1049  1  0.92240799  0.34577563  0.24949772  1
  O  O1050  1  0.70539801  0.05263244  0.33470587  1
  C  C1051  1  0.68839222  0.19255894  0.35997056  1
  C  C1052  1  0.71237885  0.18714610  0.30949810  1
  H  H1053  1  0.65897367  0.19396141  0.34122001  1
  C  C1054  1  0.69343919  0.23057948  0.40036077  1
  O  O1055  1  0.69501308  0.12429738  0.29565238  1
  H  H1056  1  0.62931562  0.20338381  0.45329460  1
  O  O1057  1  0.60843372  0.07598004  0.46514946  1
  C  C1058  1  0.72153648  0.14727387  0.29394088  1
  O  O1059  1  0.58234426  0.22930311  0.35151189  1
  H  H1060  1  0.69812620  0.20313751  0.27373993  1
  H  H1061  1  0.68854690  0.16462488  0.38570287  1
  O  O1062  1  0.71588502  0.22682548  0.44280147  1
  Cu  Cu1063  1  0.68637687  0.07143447  0.27135339  1
  H  H1064  1  0.65555831  0.06060063  0.39702627  1
  H  H1065  1  0.55195151  0.21117975  0.48594502  1
  C  C1066  1  0.55380980  0.24426692  0.48421951  1
  C  C1067  1  0.69678458  0.02297256  0.36239611  1
  H  H1068  1  0.60198068  0.14334195  0.49049126  1
  N  N1069  1  0.60789512  0.21511664  0.47591382  1
  C  C1070  1  0.63353238  0.07478267  0.49691002  1
  H  H1071  1  0.70547056  0.05169518  0.47293012  1
  C  C1072  1  0.68143392  0.02924482  0.46358504  1
  C  C1073  1  0.66683358  0.03096810  0.40297797  1
  H  H1074  1  0.64524966  0.01057531  0.40095251  1
  N  N1075  1  0.74721991  0.20921850  0.31418832  1
  O  O1076  1  0.75332791  0.13765924  0.27385128  1
  H  H1077  1  0.83547513  0.00571504  0.32188060  1
  H  H1078  1  0.98556143  0.21738625  0.47458556  1
  H  H1079  1  0.77328131  0.01864224  0.37399570  1
  H  H1080  1  0.76841357  0.19455604  0.33248668  1
  O  O1081  1  0.77838545  0.14993972  0.47820679  1
  C  C1082  1  0.80447472  0.04020179  0.43395951  1
  O  O1083  1  0.81429331  0.06844356  0.40936353  1
  O  O1084  1  0.89250218  0.16053749  0.36511350  1
  C  C1085  1  0.88477613  0.14408929  0.31912503  1
  Cu  Cu1086  1  0.85950388  0.17579004  0.42651041  1
  C  C1087  1  0.89293398  0.10169781  0.32440010  1
  H  H1088  1  0.91187247  0.09843952  0.36077618  1
  O  O1089  1  0.82831431  0.19980372  0.37639542  1
  H  H1090  1  0.86768015  0.08735819  0.33832553  1
  H  H1091  1  0.95418596  0.15489669  0.31988688  1
  O  O1092  1  0.90636196  0.09310397  0.46640698  1
  H  H1093  1  0.95532796  0.12720382  0.41321130  1
  N  N1094  1  0.97838902  0.14461066  0.41561615  1
  C  C1095  1  0.82463854  0.23544680  0.37168859  1
  O  O1096  1  0.87494516  0.16219758  0.27453081  1
  C  C1097  1  0.90866548  0.08251227  0.27218816  1
  H  H1098  1  0.93859300  0.07896125  0.26587756  1
  C  C1099  1  0.76322739  0.22411031  0.26287128  1
  C  C1100  1  0.98166046  0.16787012  0.32043712  1
  O  O1101  1  0.89236163  0.15477021  0.47985643  1
  Cu  Cu1102  1  0.83329796  0.18982314  0.25870544  1
  H  H1103  1  0.78132037  0.24074436  0.43812765  1
  H  H1104  1  0.76818266  0.24400634  0.36650552  1
  O  O1105  1  0.82689141  0.18824175  0.48250257  1
  H  H1106  1  0.97817048  0.19859550  0.33573042  1
  N  N1107  1  0.78679476  0.00584572  0.40974859  1
  H  H1108  1  0.96069848  0.02336224  0.36630153  1
  C  C1109  1  0.99520074  0.16549994  0.26022133  1
  C  C1110  1  0.96950283  0.03586135  0.40787848  1
  H  H1111  1  0.97398183  0.06772611  0.41275346  1
  C  C1112  1  0.89952614  0.11962485  0.49676350  1
  O  O1113  1  0.99480634  0.10397563  0.49362207  1
  C  C1114  1  0.99561042  0.13420372  0.46713667  1
  C  C1115  1  0.98339487  0.01166927  0.44849657  1
  C  C1116  1  0.58968575  0.25014912  0.45331589  1
  H  H1117  1  0.63823079  0.48550104  0.45843553  1
  C  C1118  1  0.51949854  0.25793971  0.45926872  1
  C  C1119  1  0.58169324  0.25603988  0.38254267  1
  H  H1120  1  0.60392454  0.27472322  0.47288998  1
  O  O1121  1  0.67196301  0.25612506  0.39639949  1
  H  H1122  1  0.70386301  0.27273987  0.30076484  1
  O  O1123  1  0.51781237  0.29174354  0.44065653  1
  O  O1124  1  0.57276461  0.29142283  0.36853386  1
  O  O1125  1  0.52253228  0.31878862  0.28409384  1
  Cu  Cu1126  1  0.52280266  0.30392860  0.36224260  1
  O  O1127  1  0.69736532  0.39975753  0.34492418  1
  C  C1128  1  0.70842513  0.42603466  0.37760561  1
  Cu  Cu1129  1  0.65206905  0.39025812  0.31736082  1
  O  O1130  1  0.69951437  0.42916906  0.43000224  1
  O  O1131  1  0.66544959  0.33181563  0.30309324  1
  H  H1132  1  0.59779226  0.30996467  0.28537279  1
  O  O1133  1  0.60715571  0.38530869  0.29537110  1
  C  C1134  1  0.73431239  0.45253528  0.34841498  1
  C  C1135  1  0.73038083  0.45894621  0.28278333  1
  C  C1136  1  0.71160676  0.27499104  0.25682455  1
  O  O1137  1  0.57351978  0.46778612  0.47456432  1
  N  N1138  1  0.74631169  0.48507240  0.38520818  1
  H  H1139  1  0.73191002  0.30487685  0.39228610  1
  H  H1140  1  0.73487593  0.48997311  0.27506304  1
  Cu  Cu1141  1  0.72441100  0.26674420  0.49705889  1
  Cu  Cu1142  1  0.73085673  0.44006421  0.49339373  1
  C  C1143  1  0.66072290  0.31769579  0.25418291  1
  O  O1144  1  0.99692131  0.47468347  0.44698369  1
  C  C1145  1  0.78898152  0.43015734  0.41544932  1
  C  C1146  1  0.77372845  0.45821466  0.36634063  1
  C  C1147  1  0.78949945  0.36427689  0.45489665  1
  Cu  Cu1148  1  0.86342860  0.25836943  0.27080758  1
  C  C1149  1  0.81968527  0.37211006  0.49112952  1
  H  H1150  1  0.75656484  0.38063823  0.38292620  1
  C  C1151  1  0.93111201  0.41164580  0.46638059  1
  H  H1152  1  0.88023335  0.40386388  0.43334897  1
  C  C1153  1  0.83288389  0.41102681  0.48683441  1
  O  O1154  1  0.83293245  0.35421893  0.31414142  1
  C  C1155  1  0.91938356  0.37577098  0.26323921  1
  O  O1156  1  0.95846026  0.34514823  0.49520865  1
  C  C1157  1  0.94003245  0.44317592  0.27363823  1
  C  C1158  1  0.93693636  0.36176670  0.46302842  1
  H  H1159  1  0.99484297  0.33661851  0.28715424  1
  C  C1160  1  0.94781795  0.40396280  0.25920960  1
  N  N1161  1  0.75787432  0.31677040  0.39234761  1
  C  C1162  1  0.81834550  0.44172035  0.45223971  1
  N  N1163  1  0.89261386  0.42168189  0.46337717  1
  C  C1164  1  0.85292312  0.36273564  0.27556391  1
  H  H1165  1  0.81427712  0.31224996  0.37888406  1
  C  C1166  1  0.87918089  0.42848717  0.30072189  1
  O  O1167  1  0.84986458  0.25654268  0.35164194  1
  C  C1168  1  0.90672064  0.45646430  0.29341332  1
  C  C1169  1  0.79146235  0.25365312  0.39695660  1
  H  H1170  1  0.95169503  0.40586186  0.37899420  1
  O  O1171  1  0.80474330  0.47599125  0.32689674  1
  H  H1172  1  0.75682851  0.44333866  0.27206793  1
  H  H1173  1  0.96095343  0.46562500  0.26898175  1
  C  C1174  1  0.76809379  0.32381320  0.45146456  1
  C  C1175  1  0.79159163  0.29634063  0.40123088  1
  H  H1176  1  0.85157753  0.43663445  0.31002329  1
  C  C1177  1  0.99105742  0.44351273  0.42579064  1
  H  H1178  1  0.93519044  0.45505853  0.39276166  1
  C  C1179  1  0.88592797  0.39073417  0.28056863  1
  H  H1180  1  0.84851818  0.48957432  0.31374534  1
  C  C1181  1  0.95025335  0.43013183  0.41372564  1
  C  C1182  1  0.77647320  0.39139697  0.41341652  1
  H  H1183  1  0.83122474  0.47053880  0.45315216  1
  O  O1184  1  0.92173994  0.34837436  0.42048342  1
  O  O1185  1  0.75162125  0.30908128  0.49675432  1
  C  C1186  1  0.69353261  0.14231819  0.58235640  1
  C  C1187  1  0.67215087  0.17622866  0.57695839  1
  H  H1188  1  0.68082190  0.20440661  0.59725712  1
  O  O1189  1  0.62529007  0.24442865  0.56628714  1
  C  C1190  1  0.72497553  0.13643205  0.62534111  1
  C  C1191  1  0.68250463  0.10904350  0.55188638  1
  H  H1192  1  0.69487294  0.07991663  0.55655842  1
  O  O1193  1  0.73462731  0.10487223  0.64023499  1
  N  N1194  1  0.74244603  0.17172619  0.63505826  1
  H  H1195  1  0.73567789  0.18203028  0.54960372  1
  C  C1196  1  0.64439714  0.17855868  0.53722336  1
  C  C1197  1  0.62591159  0.21963489  0.53144293  1
  C  C1198  1  0.65081441  0.11146955  0.51970388  1
  N  N1199  1  0.65545756  0.04111545  0.51012138  1
  H  H1200  1  0.63835636  0.01774616  0.51832595  1
  C  C1201  1  0.63005326  0.14479321  0.51094721  1
  C  C1202  1  0.75685302  0.23719007  0.59372840  1
  H  H1203  1  0.76102895  0.17255877  0.66939063  1
  C  C1204  1  0.80448061  0.00620709  0.59067591  1
  C  C1205  1  0.79657982  0.00533234  0.53155253  1
  C  C1206  1  0.75676099  0.19033967  0.58325478  1
  C  C1207  1  0.82316831  0.03479231  0.61997541  1
  C  C1208  1  0.79566081  0.17453745  0.57104472  1
  H  H1209  1  0.81678150  0.19588867  0.58751407  1
  H  H1210  1  0.88074563  0.15091135  0.61517256  1
  N  N1211  1  0.86969180  0.12883161  0.59020444  1
  C  C1212  1  0.86366373  0.09469737  0.62265006  1
  C  C1213  1  0.83981216  0.06568873  0.58954287  1
  C  C1214  1  0.90094610  0.10754228  0.56117545  1
  O  O1215  1  0.87147733  0.08941195  0.67516829  1
  H  H1216  1  0.93897101  0.15359749  0.58224347  1
  C  C1217  1  0.93829372  0.12110002  0.58296011  1
  H  H1218  1  0.96185274  0.11038593  0.55672735  1
  H  H1219  1  0.89617367  0.07569362  0.56061512  1
  C  C1220  1  0.94794096  0.10515305  0.64747361  1
  Cu  Cu1221  1  0.90600858  0.04760874  0.69614818  1
  O  O1222  1  0.94328011  0.06877344  0.65630169  1
  O  O1223  1  0.95722406  0.12517179  0.68617650  1
  H  H1224  1  0.82748645  0.03181442  0.66764623  1
  H  H1225  1  0.79731343  0.14704063  0.59474305  1
  C  C1226  1  0.83224447  0.06340982  0.52984476  1
  O  O1227  1  0.88296026  0.21196291  0.63577756  1
  C  C1228  1  0.90910145  0.21881261  0.60808461  1
  O  O1229  1  0.93570770  0.22225129  0.58094710  1
  O  O1230  1  0.91122344  0.01478810  0.55604775  1
  O  O1231  1  0.86993952  0.01851316  0.73005976  1
  C  C1232  1  0.81028415  0.03690890  0.50019692  1
  C  C1233  1  0.79985545  0.16895121  0.50297603  1
  H  H1234  1  0.84125947  0.08772891  0.50316271  1
  O  O1235  1  0.72934069  0.25460284  0.57131408  1
  H  H1236  1  0.55723435  0.25604196  0.52980096  1
  C  C1237  1  0.67081205  0.48022400  0.53093376  1
  O  O1238  1  0.59232245  0.39590916  0.67518502  1
  O  O1239  1  0.65768747  0.46075318  0.57205690  1
  Cu  Cu1240  1  0.67357068  0.46641458  0.64905563  1
  Cu  Cu1241  1  0.58069583  0.43361425  0.62029335  1
  O  O1242  1  0.69134138  0.47232721  0.72121450  1
  O  O1243  1  0.60795509  0.46928751  0.66484785  1
  H  H1244  1  0.72707911  0.42448617  0.66035228  1
  C  C1245  1  0.58163019  0.48098487  0.52114551  1
  O  O1246  1  0.56295070  0.46923869  0.56514375  1
  C  C1247  1  0.73818373  0.43230544  0.70353585  1
  O  O1248  1  0.70336189  0.48360306  0.51819838  1
  O  O1249  1  0.69256439  0.36410349  0.66991148  1
  C  C1250  1  0.68253415  0.36792189  0.62213549  1
  C  C1251  1  0.59394845  0.48278554  0.71047277  1
  C  C1252  1  0.58453363  0.39685378  0.73060959  1
  O  O1253  1  0.67241691  0.37045190  0.57504979  1
  C  C1254  1  0.71231135  0.44797491  0.74512440  1
  O  O1255  1  0.55978477  0.37982128  0.74819906  1
  H  H1256  1  0.74973351  0.40428057  0.72219436  1
  N  N1257  1  0.99657363  0.28097507  0.52031043  1
  O  O1258  1  0.78181678  0.25344119  0.61563075  1
  O  O1259  1  0.90652295  0.49656500  0.53439069  1
  O  O1260  1  0.98482097  0.31957292  0.74462633  1
  H  H1261  1  0.87535764  0.49765639  0.67526503  1
  O  O1262  1  0.95460525  0.48896666  0.68733739  1
  C  C1263  1  0.83396658  0.49794223  0.54953507  1
  O  O1264  1  0.87625417  0.41564815  0.56577450  1
  H  H1265  1  0.84822560  0.47314260  0.57101911  1
  H  H1266  1  0.82910769  0.35005214  0.52139634  1
  C  C1267  1  0.92487996  0.49380637  0.72702365  1
  C  C1268  1  0.87084430  0.41562883  0.51554848  1
  H  H1269  1  0.79377942  0.43493959  0.68091872  1
  H  H1270  1  0.97258400  0.47741518  0.71667897  1
  C  C1271  1  0.77427160  0.47027791  0.58556210  1
  N  N1272  1  0.76882623  0.48187059  0.64119535  1
  C  C1273  1  0.77268202  0.45577089  0.69293551  1
  O  O1274  1  0.76282598  0.44076274  0.56038345  1
  H  H1275  1  0.94140663  0.42078284  0.50823604  1
  H  H1276  1  0.97491607  0.29934801  0.50927340  1
  C  C1277  1  0.72840510  0.01837720  0.93756001  1
  C  C1278  1  0.69836989  0.02617038  0.97510451  1
  O  O1279  1  0.69141842  0.19003448  0.97505801  1
  C  C1280  1  0.71732504  0.21400857  0.98251624  1
  Cu  Cu1281  1  0.70492718  0.14081246  0.98341525  1
  O  O1282  1  0.71908285  0.08993391  0.98725449  1
  O  O1283  1  0.74019544  0.22168384  0.94885520  1
  O  O1284  1  0.54083189  0.03528613  0.94337415  1
  H  H1285  1  0.74505426  0.04333992  0.92643705  1
  C  C1286  1  0.53143350  0.00702032  0.91811001  1
  C  C1287  1  0.69521007  0.06470767  0.99999093  1
  C  C1288  1  0.95371239  0.02434525  0.90243536  1
  C  C1289  1  0.96068767  0.20382484  0.94182107  1
  C  C1290  1  0.96893020  0.16910793  0.97062239  1
  O  O1291  1  0.94036227  0.05538480  0.92199717  1
  Cu  Cu1292  1  0.89524189  0.06711781  0.95314370  1
  H  H1293  1  0.97906750  0.21520433  0.90747667  1
  H  H1294  1  0.80308841  0.00446330  0.85354808  1
  C  C1295  1  0.92865722  0.22387126  0.95820024  1
  O  O1296  1  0.87767124  0.01374488  0.95714101  1
  C  C1297  1  0.83083178  0.11271644  0.97688463  1
  O  O1298  1  0.82651499  0.12518526  0.92938852  1
  N  N1299  1  0.79269493  0.00077531  0.89438506  1
  C  C1300  1  0.98979935  0.00924473  0.91835547  1
  O  O1301  1  0.85145858  0.08170077  0.98528093  1
  C  C1302  1  0.80854650  0.00403446  0.99753361  1
  O  O1303  1  0.93748605  0.00550320  0.86366234  1
  C  C1304  1  0.50772390  0.29911523  0.97680454  1
  O  O1305  1  0.53188621  0.29276056  0.94244837  1
  Cu  Cu1306  1  0.74446559  0.46876799  0.85208745  1
  C  C1307  1  0.60415917  0.46645293  0.76700449  1
  O  O1308  1  0.70910855  0.47962793  0.91318470  1
  O  O1309  1  0.65042328  0.36795192  0.84731803  1
  N  N1310  1  0.60487596  0.41576581  0.83596773  1
  C  C1311  1  0.61577188  0.39683276  0.92946680  1
  H  H1312  1  0.58554349  0.42685858  0.86414645  1
  H  H1313  1  0.58099437  0.34582082  0.93570298  1
  C  C1314  1  0.59156190  0.37274563  0.95784499  1
  C  C1315  1  0.62739588  0.39001009  0.86363739  1
  C  C1316  1  0.63258416  0.43022811  0.95166753  1
  O  O1317  1  0.71552473  0.44186362  0.79945889  1
  H  H1318  1  0.65316658  0.44538650  0.92556060  1
  C  C1319  1  0.61055439  0.42319435  0.77276667  1
  H  H1320  1  0.63968925  0.41266241  0.76981224  1
  H  H1321  1  0.57975510  0.47242772  0.80061775  1
  H  H1322  1  0.62758193  0.48438649  0.78430563  1
  O  O1323  1  0.55010159  0.48443084  0.86467001  1
  H  H1324  1  0.99798533  0.37814621  0.80534876  1
  O  O1325  1  0.90823165  0.48641447  0.98192316  1
  C  C1326  1  0.78326000  0.48060032  0.75117476  1
  O  O1327  1  0.78243481  0.46458706  0.79928606  1
  H  H1328  1  0.99276290  0.45835532  0.87530590  1
  O  O1329  1  0.92349941  0.47483144  0.76934571  1
  C  C1330  1  0.88060476  0.49682950  0.95993475  1
  H  H1331  1  0.95992821  0.30131459  0.98011609  1
  O  O1332  1  0.93181089  0.27144827  0.88222517  1
  C  C1333  1  0.92481879  0.26416779  0.93126034  1
  H  H1334  1  0.89566780  0.31295412  0.96802173  1
  H  H1335  1  0.86622165  0.47298565  0.93464666  1
  N  N1336  1  0.91233205  0.28860215  0.97563736  1
  H  H1337  1  0.72300823  0.61500512  0.19942352  1
  C  C1338  1  0.62518016  0.67888086  0.18576821  1
  C  C1339  1  0.64507681  0.64576023  0.14576897  1
  O  O1340  1  0.69480319  0.71892935  0.12046093  1
  O  O1341  1  0.68071702  0.64361728  0.14407026  1
  Cu  Cu1342  1  0.70984551  0.66850863  0.09047774  1
  O  O1343  1  0.62816671  0.62884796  0.11046532  1
  H  H1344  1  0.62316296  0.66879383  0.23274857  1
  C  C1345  1  0.63142098  0.54398217  0.23048126  1
  C  C1346  1  0.64375107  0.71794869  0.18315461  1
  O  O1347  1  0.72313054  0.62001933  0.05963581  1
  H  H1348  1  0.59514151  0.68150943  0.17296365  1
  O  O1349  1  0.64932600  0.52969930  0.18816695  1
  H  H1350  1  0.68487453  0.59587747  0.21920436  1
  C  C1351  1  0.66271319  0.72922986  0.12924744  1
  N  N1352  1  0.67034567  0.71788571  0.22991018  1
  O  O1353  1  0.59874160  0.54020297  0.23329529  1
  H  H1354  1  0.72098065  0.54017841  0.04388705  1
  H  H1355  1  0.68542486  0.52718064  0.09148134  1
  C  C1356  1  0.73741001  0.63565168  0.22568735  1
  C  C1357  1  0.70442488  0.51620780  0.05652753  1
  H  H1358  1  0.69724944  0.71746285  0.21657620  1
  O  O1359  1  0.73671503  0.69530996  0.03491615  1
  O  O1360  1  0.64484941  0.74711689  0.09205183  1
  O  O1361  1  0.55703961  0.74823048  0.23329172  1
  H  H1362  1  0.62734473  0.74334154  0.19883921  1
  O  O1363  1  0.74676954  0.55352576  0.19737265  1
  H  H1364  1  0.64216317  0.53277345  0.01147949  1
  C  C1365  1  0.75069521  0.61245089  0.03068164  1
  H  H1366  1  0.75630792  0.60038932  0.14999177  1
  N  N1367  1  0.77870646  0.61187758  0.12901044  1
  O  O1368  1  0.84223446  0.53361435  0.15928694  1
  C  C1369  1  0.76900147  0.65541864  0.20799730  1
  H  H1370  1  0.78463586  0.57268197  0.07493490  1
  C  C1371  1  0.78431204  0.60434776  0.06697224  1
  C  C1372  1  0.78888674  0.64952067  0.15235873  1
  O  O1373  1  0.81023227  0.67303095  0.13611043  1
  O  O1374  1  0.84035010  0.55273806  0.04190528  1
  H  H1375  1  0.81225962  0.69430510  0.22695044  1
  C  C1376  1  0.81684721  0.62101117  0.03874348  1
  O  O1377  1  0.94302430  0.64749943  0.23291418  1
  H  H1378  1  0.82803807  0.64440482  0.06959914  1
  O  O1379  1  0.98478437  0.68941966  0.20391047  1
  C  C1380  1  0.96909237  0.67057848  0.24345777  1
  C  C1381  1  0.78714463  0.68057482  0.24320031  1
  C  C1382  1  0.84817499  0.58681745  0.02374172  1
  O  O1383  1  0.98936127  0.65873243  0.08360831  1
  Cu  Cu1384  1  0.87435104  0.52803087  0.09440139  1
  H  H1385  1  0.79754301  0.73905851  0.01412589  1
  C  C1386  1  0.84579522  0.51494944  0.20600349  1
  C  C1387  1  0.99372033  0.65729662  0.03069869  1
  O  O1388  1  0.87547748  0.59572778  0.00073746  1
  H  H1389  1  0.81071035  0.57144701  0.24303929  1
  C  C1390  1  0.98988202  0.61542114  0.00196676  1
  H  H1391  1  0.96145954  0.60553891  0.01146036  1
  H  H1392  1  0.88738648  0.54799258  0.24359393  1
  C  C1393  1  0.75285164  0.54812601  0.24590594  1
  C  C1394  1  0.53773009  0.77467941  0.22410856  1
  O  O1395  1  0.51786169  0.79949706  0.21024357  1
  H  H1396  1  0.72099667  0.76129749  0.23046282  1
  N  N1397  1  0.50698622  0.96988220  0.23497804  1
  H  H1398  1  0.65127947  0.88859747  0.05808439  1
  C  C1399  1  0.68214856  0.83825620  0.04501050  1
  C  C1400  1  0.67802160  0.88012461  0.03724290  1
  C  C1401  1  0.70739363  0.90708431  0.05551917  1
  C  C1402  1  0.72076684  0.91046252  0.12241659  1
  O  O1403  1  0.70221725  0.82568414  0.08458467  1
  O  O1404  1  0.72191550  0.94249037  0.14563746  1
  H  H1405  1  0.69755471  0.93574014  0.04083614  1
  Cu  Cu1406  1  0.66494615  0.76519610  0.02336890  1
  O  O1407  1  0.72662827  0.88005118  0.14906226  1
  H  H1408  1  0.73209240  0.90198465  0.02907477  1
  O  O1409  1  0.67127462  0.81674630  0.00278994  1
  O  O1410  1  0.79826900  0.85031445  0.13691864  1
  O  O1411  1  0.93535404  0.93494625  0.00560518  1
  C  C1412  1  0.99630468  0.90779886  0.12578773  1
  O  O1413  1  0.78653004  0.77719319  0.21914946  1
  H  H1414  1  0.85549185  0.90443270  0.23954542  1
  O  O1415  1  0.96541662  0.83342057  0.23120516  1
  N  N1416  1  0.94125130  0.90498038  0.18546555  1
  H  H1417  1  0.92592207  0.83878071  0.12137443  1
  O  O1418  1  0.78719774  0.93848514  0.02562463  1
  C  C1419  1  0.94070905  0.97911192  0.10745774  1
  C  C1420  1  0.91142116  0.92198550  0.15528921  1
  H  H1421  1  0.94173063  0.90698545  0.08998318  1
  C  C1422  1  0.78071627  0.80138033  0.00438489  1
  O  O1423  1  0.88063080  0.90550679  0.14908835  1
  C  C1424  1  0.89266493  0.99245051  0.17677170  1
  C  C1425  1  0.97125725  0.82433417  0.17923474  1
  C  C1426  1  0.80791542  0.86968237  0.17893791  1
  H  H1427  1  0.97098448  0.84160129  0.08682465  1
  H  H1428  1  0.84002074  0.82345445  0.21743268  1
  Cu  Cu1429  1  0.75080715  0.84020340  0.10768832  1
  C  C1430  1  0.80039412  0.96765408  0.04226994  1
  H  H1431  1  0.96095060  0.98707224  0.01343124  1
  H  H1432  1  0.95809654  0.95910134  0.08211278  1
  C  C1433  1  0.82460010  0.85016726  0.23112800  1
  O  O1434  1  0.81121593  0.97240843  0.09542833  1
  C  C1435  1  0.95627393  0.89273041  0.12965866  1
  Cu  Cu1436  1  0.84425101  0.93551318  0.11957947  1
  O  O1437  1  0.81226800  0.90606375  0.17527942  1
  O  O1438  1  0.99175227  0.79850715  0.16776405  1
  Cu  Cu1439  1  0.75312833  0.96148841  0.19855739  1
  C  C1440  1  0.91509052  0.96592200  0.14659888  1
  H  H1441  1  0.86896668  0.98072010  0.20027795  1
  H  H1442  1  0.94217854  0.87878847  0.20908289  1
  O  O1443  1  0.77317807  0.80485516  0.05815317  1
  C  C1444  1  0.95461594  0.84837572  0.12611624  1
  C  C1445  1  0.58785258  0.60652991  0.40790335  1
  C  C1446  1  0.59675107  0.68280213  0.43766196  1
  C  C1447  1  0.59790611  0.72394461  0.46171777  1
  O  O1448  1  0.68625420  0.55915287  0.41099970  1
  C  C1449  1  0.66221788  0.54146891  0.37696005  1
  C  C1450  1  0.58719159  0.67370482  0.37962754  1
  H  H1451  1  0.58294935  0.57714503  0.39219308  1
  C  C1452  1  0.58115980  0.63489207  0.36589164  1
  Cu  Cu1453  1  0.69157270  0.61093229  0.42360426  1
  H  H1454  1  0.58130579  0.69541361  0.34572966  1
  C  C1455  1  0.67526985  0.53787413  0.31771812  1
  O  O1456  1  0.67970920  0.63435967  0.35076311  1
  H  H1457  1  0.70580752  0.54441095  0.31250372  1
  N  N1458  1  0.55412717  0.58117944  0.31299368  1
  C  C1459  1  0.57012841  0.61984379  0.30626169  1
  H  H1460  1  0.63605292  0.58778103  0.30836039  1
  C  C1461  1  0.69183869  0.62320115  0.30307250  1
  C  C1462  1  0.65287700  0.56675340  0.28148912  1
  H  H1463  1  0.60149500  0.54418436  0.44348641  1
  H  H1464  1  0.66974934  0.50694833  0.30619810  1
  C  C1465  1  0.59810605  0.61547751  0.46522489  1
  O  O1466  1  0.68058084  0.64784084  0.47849750  1
  H  H1467  1  0.51573355  0.63927295  0.32810667  1
  C  C1468  1  0.60091835  0.65539613  0.48097671  1
  C  C1469  1  0.72439721  0.64335874  0.28283971  1
  C  C1470  1  0.65809040  0.73950149  0.28007009  1
  O  O1471  1  0.62975843  0.73916092  0.30489807  1
  H  H1472  1  0.73143379  0.67584172  0.36572273  1
  H  H1473  1  0.59055708  0.73973137  0.37725510  1
  O  O1474  1  0.51496930  0.51557518  0.34864499  1
  O  O1475  1  0.63123222  0.53650383  0.38911288  1
  H  H1476  1  0.56495102  0.56005005  0.28591024  1
  N  N1477  1  0.60170277  0.55003933  0.48839775  1
  C  C1478  1  0.74143239  0.67136555  0.32057851  1
  N  N1479  1  0.73716453  0.59727770  0.47570165  1
  O  O1480  1  0.51167562  0.54305570  0.46364176  1
  Cu  Cu1481  1  0.50997947  0.73024659  0.44933402  1
  H  H1482  1  0.51419749  0.57728306  0.25599767  1
  H  H1483  1  0.72956956  0.56824349  0.48392058  1
  C  C1484  1  0.51409555  0.57750008  0.30418565  1
  H  H1485  1  0.52536432  0.61860615  0.45713933  1
  N  N1486  1  0.67801739  0.59807454  0.26149147  1
  H  H1487  1  0.74919837  0.51297279  0.37035792  1
  O  O1488  1  0.57251147  0.63957313  0.26551052  1
  C  C1489  1  0.50826360  0.60570926  0.49123962  1
  C  C1490  1  0.64501924  0.50400289  0.49824957  1
  H  H1491  1  0.66055717  0.53109598  0.48362702  1
  C  C1492  1  0.90456056  0.50083665  0.30102585  1
  O  O1493  1  0.75775373  0.54347864  0.29587081  1
  O  O1494  1  0.79470787  0.61109136  0.43277638  1
  C  C1495  1  0.79567421  0.71254619  0.34222624  1
  H  H1496  1  0.93491548  0.55073460  0.46825786  1
  H  H1497  1  0.84804051  0.72430668  0.38866189  1
  N  N1498  1  0.83024683  0.72280354  0.31473271  1
  H  H1499  1  0.84685618  0.57659976  0.46112770  1
  O  O1500  1  0.90429238  0.70995778  0.31753479  1
  Cu  Cu1501  1  0.91175813  0.66606145  0.37237383  1
  O  O1502  1  0.91769319  0.62690094  0.42262820  1
  H  H1503  1  0.98040350  0.68394319  0.39359213  1
  N  N1504  1  0.96770894  0.66953545  0.35849854  1
  N  N1505  1  0.90810406  0.55484485  0.48058194  1
  O  O1506  1  0.97478566  0.60357512  0.31742498  1
  C  C1507  1  0.98393955  0.67310262  0.30199019  1
  C  C1508  1  0.89791343  0.62341739  0.46783600  1
  O  O1509  1  0.87444626  0.64457165  0.48208048  1
  C  C1510  1  0.77376620  0.68502606  0.30093817  1
  H  H1511  1  0.82017455  0.55699660  0.31711897  1
  C  C1512  1  0.99081174  0.63485145  0.33561382  1
  O  O1513  1  0.84414433  0.62645547  0.32424551  1
  O  O1514  1  0.78407499  0.72144356  0.38832207  1
  O  O1515  1  0.93137936  0.52013981  0.29933648  1
  H  H1516  1  0.83717214  0.69696913  0.29764395  1
  C  C1517  1  0.89405730  0.74270801  0.32996508  1
  N  N1518  1  0.86747274  0.51257808  0.30753156  1
  C  C1519  1  0.85435924  0.60639406  0.28471863  1
  Cu  Cu1520  1  0.92669083  0.60864842  0.28732750  1
  C  C1521  1  0.85476092  0.74583996  0.35143273  1
  C  C1522  1  0.77635161  0.59180273  0.46255671  1
  C  C1523  1  0.83156512  0.55536280  0.48842236  1
  H  H1524  1  0.92653171  0.69208459  0.49438223  1
  H  H1525  1  0.79618839  0.50101818  0.32106017  1
  C  C1526  1  0.83317711  0.56633954  0.27332646  1
  C  C1527  1  0.85950786  0.53632385  0.25472578  1
  O  O1528  1  0.88351288  0.61392570  0.25508987  1
  O  O1529  1  0.97563789  0.73685266  0.45611568  1
  C  C1530  1  0.79344569  0.55699776  0.49315215  1
  N  N1531  1  0.58393677  0.75005967  0.41737882  1
  C  C1532  1  0.68754183  0.76469396  0.30751066  1
  O  O1533  1  0.51635940  0.90212472  0.34361888  1
  C  C1534  1  0.59679696  0.98089224  0.30203137  1
  H  H1535  1  0.66302028  0.76684475  0.39490658  1
  O  O1536  1  0.61766602  0.97233180  0.33139154  1
  C  C1537  1  0.71823268  0.77313525  0.27307195  1
  O  O1538  1  0.71332769  0.99119652  0.35553427  1
  O  O1539  1  0.52077979  0.78269682  0.46658612  1
  H  H1540  1  0.59341746  0.80467506  0.39220656  1
  H  H1541  1  0.62982618  0.79760273  0.48347125  1
  C  C1542  1  0.58127741  0.79143361  0.43249583  1
  O  O1543  1  0.53069347  0.83011485  0.40358335  1
  Cu  Cu1544  1  0.55438857  0.88082525  0.39255904  1
  C  C1545  1  0.54125918  0.80260920  0.43524244  1
  C  C1546  1  0.68500662  0.77686259  0.36538010  1
  C  C1547  1  0.71053596  0.81377798  0.44995140  1
  C  C1548  1  0.59300093  0.85155732  0.48855572  1
  O  O1549  1  0.68327826  0.81867795  0.47712403  1
  O  O1550  1  0.59477245  0.86778040  0.43876507  1
  C  C1551  1  0.59917280  0.80377416  0.48427356  1
  C  C1552  1  0.71355144  0.80030439  0.38770657  1
  C  C1553  1  0.68707799  0.98411775  0.47400856  1
  O  O1554  1  0.71941031  0.96970968  0.46759566  1
  O  O1555  1  0.66255224  0.96277022  0.47987608  1
  C  C1556  1  0.52098485  0.90936353  0.28752491  1
  H  H1557  1  0.52774908  0.97884851  0.26268263  1
  C  C1558  1  0.74420679  0.80767339  0.35310832  1
  N  N1559  1  0.74879182  0.81738580  0.46873411  1
  Cu  Cu1560  1  0.74567508  0.95886786  0.40147374  1
  C  C1561  1  0.74687972  0.79318818  0.29766648  1
  O  O1562  1  0.54790525  0.90430373  0.26153752  1
  O  O1563  1  0.89876214  0.85625415  0.49820158  1
  C  C1564  1  0.82540423  0.97791247  0.33794659  1
  O  O1565  1  0.91694372  0.76882325  0.33962308  1
  O  O1566  1  0.96626656  0.93797439  0.38663430  1
  H  H1567  1  0.83725414  0.99006753  0.42927442  1
  H  H1568  1  0.83224815  0.88941080  0.30497723  1
  H  H1569  1  0.77884036  0.85045868  0.28772096  1
  C  C1570  1  0.93089182  0.85379544  0.48579374  1
  O  O1571  1  0.83157828  0.91095650  0.41030849  1
  Cu  Cu1572  1  0.86316048  0.88002799  0.45785520  1
  H  H1573  1  0.98249022  0.97927823  0.44723949  1
  Cu  Cu1574  1  0.94238035  0.80126756  0.28646471  1
  O  O1575  1  0.77896579  0.92928470  0.44641686  1
  C  C1576  1  0.81570253  0.97680222  0.40027430  1
  O  O1577  1  0.83787448  0.83269373  0.43490334  1
  C  C1578  1  0.84593054  0.87859304  0.26498013  1
  O  O1579  1  0.76760123  0.94337241  0.32936190  1
  O  O1580  1  0.89580942  0.82613829  0.26496510  1
  H  H1581  1  0.75927422  0.79256464  0.45353721  1
  O  O1582  1  0.98528933  0.78051341  0.31115691  1
  O  O1583  1  0.99912671  0.81072079  0.39213427  1
  O  O1584  1  0.91353917  0.97625657  0.37771407  1
  O  O1585  1  0.94248388  0.83938308  0.44053032  1
  C  C1586  1  0.78904728  0.96422975  0.30462554  1
  C  C1587  1  0.80970983  0.93664237  0.42419176  1
  C  C1588  1  0.83869401  0.78415491  0.36233227  1
  C  C1589  1  0.94054835  0.95749499  0.38318436  1
  N  N1590  1  0.79930190  0.83366889  0.27484561  1
  O  O1591  1  0.86497024  0.77979642  0.45841974  1
  H  H1592  1  0.80764227  0.78465559  0.35103724  1
  C  C1593  1  0.88618375  0.85928393  0.28499064  1
  H  H1594  1  0.76718468  0.82513694  0.36968815  1
  Cu  Cu1595  1  0.96085583  0.79063203  0.44369004  1
  H  H1596  1  0.84991101  0.95681324  0.33383709  1
  O  O1597  1  0.90131496  0.87786732  0.32034747  1
  C  C1598  1  0.84721596  0.79834078  0.42460957  1
  H  H1599  1  0.85356057  0.80386939  0.33387082  1
  C  C1600  1  0.77971714  0.79891866  0.25639642  1
  O  O1601  1  0.78477263  0.97671288  0.25469331  1
  H  H1602  1  0.54172083  0.63392704  0.64414436  1
  C  C1603  1  0.60194855  0.63992481  0.70547688  1
  C  C1604  1  0.58643242  0.66995647  0.66752771  1
  C  C1605  1  0.55451553  0.66274787  0.63765437  1
  C  C1606  1  0.60355578  0.70784255  0.65985434  1
  C  C1607  1  0.54013178  0.69105117  0.59935884  1
  H  H1608  1  0.61038073  0.53165589  0.57225289  1
  H  H1609  1  0.62940051  0.71563771  0.68272591  1
  O  O1610  1  0.73401607  0.56289894  0.65892823  1
  C  C1611  1  0.72295828  0.57681026  0.61384798  1
  O  O1612  1  0.69399809  0.56719421  0.59134381  1
  Cu  Cu1613  1  0.65334931  0.60221104  0.60589434  1
  N  N1614  1  0.63976063  0.64389397  0.71103445  1
  Cu  Cu1615  1  0.71105589  0.51695909  0.69604093  1
  O  O1616  1  0.62812742  0.56074239  0.69014544  1
  O  O1617  1  0.60952815  0.59946278  0.56072289  1
  O  O1618  1  0.67896924  0.64474620  0.57471561  1
  C  C1619  1  0.60960110  0.51742281  0.52715421  1
  H  H1620  1  0.65593586  0.66838300  0.69885622  1
  C  C1621  1  0.69561747  0.64244758  0.52778686  1
  C  C1622  1  0.73228869  0.62435628  0.52635439  1
  C  C1623  1  0.65231556  0.57260009  0.72635857  1
  Cu  Cu1624  1  0.57922952  0.56136679  0.71118912  1
  C  C1625  1  0.74787321  0.60817619  0.57926690  1
  H  H1626  1  0.60573880  0.66292737  0.52702339  1
  H  H1627  1  0.74415969  0.53192541  0.53050988  1
  C  C1628  1  0.70761564  0.73153695  0.67826900  1
  O  O1629  1  0.68240131  0.71046991  0.68713149  1
  O  O1630  1  0.58143745  0.61406224  0.72415557  1
  C  C1631  1  0.74202415  0.71029379  0.66441483  1
  O  O1632  1  0.57100306  0.51015192  0.71004551  1
  C  C1633  1  0.51005497  0.68829905  0.55817800  1
  H  H1634  1  0.73549251  0.68417636  0.63743190  1
  C  C1635  1  0.55780421  0.72824456  0.59225869  1
  O  O1636  1  0.67714632  0.55036794  0.74079614  1
  C  C1637  1  0.58755999  0.73738525  0.62812562  1
  H  H1638  1  0.52534542  0.59732949  0.52718859  1
  C  C1639  1  0.60458389  0.58748114  0.51053079  1
  H  H1640  1  0.69551735  0.65286249  0.74204034  1
  O  O1641  1  0.51358959  0.58247543  0.63000789  1
  O  O1642  1  0.50034170  0.71718449  0.52819471  1
  O  O1643  1  0.61120923  0.73117566  0.50784101  1
  H  H1644  1  0.50000710  0.63416428  0.59624686  1
  H  H1645  1  0.75375989  0.63404206  0.60671386  1
  H  H1646  1  0.75374475  0.64493509  0.50917364  1
  N  N1647  1  0.75378457  0.68607338  0.71419513  1
  H  H1648  1  0.77495688  0.59482910  0.57586444  1
  C  C1649  1  0.79574071  0.50130302  0.55264505  1
  C  C1650  1  0.77407111  0.53034773  0.52690688  1
  H  H1651  1  0.89706552  0.54565478  0.68133248  1
  C  C1652  1  0.89135159  0.51894590  0.70724013  1
  O  O1653  1  0.79553410  0.64409215  0.66811165  1
  C  C1654  1  0.78488901  0.66089395  0.70975818  1
  C  C1655  1  0.79282530  0.71290214  0.59016919  1
  O  O1656  1  0.82820466  0.71497323  0.58815646  1
  Cu  Cu1657  1  0.85581113  0.67407203  0.61657571  1
  O  O1658  1  0.93560981  0.61507398  0.63761061  1
  O  O1659  1  0.89720958  0.70833449  0.62069338  1
  C  C1660  1  0.90964855  0.72127950  0.57451655  1
  C  C1661  1  0.90468980  0.61178669  0.62211999  1
  O  O1662  1  0.87807192  0.63049082  0.64684979  1
  C  C1663  1  0.89110013  0.58163637  0.57393731  1
  H  H1664  1  0.89879072  0.55398631  0.59359969  1
  O  O1665  1  0.77590146  0.69717541  0.55380078  1
  H  H1666  1  0.82941193  0.60277623  0.73581145  1
  N  N1667  1  0.98639174  0.69832440  0.60286028  1
  H  H1668  1  0.96951365  0.68665606  0.63705808  1
  C  C1669  1  0.97318285  0.70567907  0.54917357  1
  H  H1670  1  0.78173385  0.50785830  0.64408618  1
  H  H1671  1  0.86103557  0.58024970  0.56847353  1
  H  H1672  1  0.93007287  0.66379092  0.56139863  1
  C  C1673  1  0.93523902  0.69406646  0.54281089  1
  C  C1674  1  0.77335853  0.73318458  0.64655157  1
  O  O1675  1  0.79310325  0.51342415  0.74316530  1
  C  C1676  1  0.85122346  0.52617225  0.51631086  1
  H  H1677  1  0.93955049  0.59277517  0.51867115  1
  H  H1678  1  0.79414933  0.73547894  0.68064902  1
  C  C1679  1  0.89271158  0.52325960  0.51017139  1
  C  C1680  1  0.90968812  0.59126319  0.51586336  1
  H  H1681  1  0.92981385  0.70693090  0.74725073  1
  C  C1682  1  0.99195335  0.72345980  0.50046396  1
  O  O1683  1  0.50328633  0.83189665  0.67842888  1
  H  H1684  1  0.54731877  0.75024540  0.56086097  1
  O  O1685  1  0.70612705  0.76788013  0.66809394  1
  O  O1686  1  0.63922852  0.79201083  0.62987324  1
  C  C1687  1  0.60450496  0.78191588  0.62940432  1
  C  C1688  1  0.58137553  0.80477501  0.67660352  1
  Cu  Cu1689  1  0.66910755  0.80146349  0.69237323  1
  N  N1690  1  0.57563925  0.81058133  0.61708916  1
  H  H1691  1  0.58760661  0.83616655  0.60337525  1
  O  O1692  1  0.69458038  0.89370496  0.60818879  1
  C  C1693  1  0.71952164  0.87281503  0.60021444  1
  C  C1694  1  0.60275441  0.83470518  0.71058989  1
  H  H1695  1  0.52008499  0.82242845  0.64731553  1
  O  O1696  1  0.63258384  0.82176034  0.73482294  1
  H  H1697  1  0.54106244  0.75869404  0.68574506  1
  C  C1698  1  0.55265873  0.78335035  0.71030195  1
  H  H1699  1  0.73113154  0.80297984  0.54126544  1
  C  C1700  1  0.73753575  0.86647588  0.53617017  1
  O  O1701  1  0.59442805  0.86768979  0.71316649  1
  C  C1702  1  0.51673185  0.80923148  0.72562599  1
  O  O1703  1  0.73421490  0.84969726  0.63971845  1
  O  O1704  1  0.59121572  0.86805185  0.53324237  1
  H  H1705  1  0.58732661  0.78996688  0.52523979  1
  H  H1706  1  0.71603104  0.87332314  0.50215702  1
  H  H1707  1  0.81075043  0.99630637  0.74144032  1
  O  O1708  1  0.99777822  0.81771256  0.64011840  1
  O  O1709  1  0.80410939  0.78736489  0.53460958  1
  H  H1710  1  0.99796360  0.94113563  0.70807594  1
  C  C1711  1  0.75075505  0.82479951  0.52957833  1
  H  H1712  1  0.75844626  0.88903725  0.53143931  1
  O  O1713  1  0.75754355  0.96002770  0.62299863  1
  C  C1714  1  0.91098392  0.98100164  0.55798706  1
  N  N1715  1  0.81865185  0.94693844  0.64834059  1
  H  H1716  1  0.84039914  0.96517173  0.63686082  1
  O  O1717  1  0.80032090  0.84269484  0.58613712  1
  H  H1718  1  0.77895435  0.98274792  0.51082620  1
  H  H1719  1  0.78288313  0.93639865  0.71366325  1
  C  C1720  1  0.83037097  0.89774059  0.72477736  1
  C  C1721  1  0.82745662  0.96876418  0.74364204  1
  C  C1722  1  0.99664728  0.85421121  0.52708968  1
  O  O1723  1  0.82966142  0.87125090  0.68775245  1
  H  H1724  1  0.95729806  0.89787552  0.53481883  1
  H  H1725  1  0.76506145  0.76162603  0.63652968  1
  Cu  Cu1726  1  0.85300127  0.77302141  0.53978069  1
  O  O1727  1  0.89129896  0.95954913  0.72771879  1
  C  C1728  1  0.81380896  0.93573091  0.71078521  1
  C  C1729  1  0.95855050  0.86455850  0.53286656  1
  Cu  Cu1730  1  0.78163133  0.85676699  0.66002111  1
  H  H1731  1  0.94800566  0.85539217  0.57735287  1
  C  C1732  1  0.78765906  0.81658555  0.55351272  1
  C  C1733  1  0.86651349  0.98327980  0.73500231  1
  O  O1734  1  0.91063381  0.94739783  0.55987197  1
  C  C1735  1  0.78872740  0.96760615  0.62267240  1
  O  O1736  1  0.90032564  0.75263652  0.55232592  1
  O  O1737  1  0.71380876  0.66602550  0.84270583  1
  C  C1738  1  0.69889729  0.63626474  0.83141576  1
  O  O1739  1  0.68733182  0.61163294  0.87016949  1
  Cu  Cu1740  1  0.71523276  0.58852972  0.92907443  1
  H  H1741  1  0.63149280  0.61525410  0.78106996  1
  O  O1742  1  0.72694956  0.53565142  0.94830097  1
  O  O1743  1  0.69611324  0.72750779  0.98346659  1
  C  C1744  1  0.69171992  0.62497871  0.76458827  1
  C  C1745  1  0.57365149  0.50700679  0.87182862  1
  O  O1746  1  0.59909215  0.52722394  0.87652943  1
  C  C1747  1  0.72755167  0.71668470  0.99404421  1
  C  C1748  1  0.70643727  0.50628148  0.94921414  1
  H  H1749  1  0.74065296  0.74955038  0.92078672  1
  N  N1750  1  0.64799120  0.50583297  0.99543197  1
  C  C1751  1  0.65506741  0.61266101  0.75011563  1
  H  H1752  1  0.71284851  0.60341074  0.75007681  1
  H  H1753  1  0.74889389  0.70060206  0.75159821  1
  H  H1754  1  0.87059127  0.52714761  0.96009831  1
  H  H1755  1  0.75024039  0.68988944  0.89756248  1
  C  C1756  1  0.99812611  0.61843390  0.93617752  1
  O  O1757  1  0.75076394  0.61061252  0.97710186  1
  H  H1758  1  0.77752005  0.70030384  0.80898655  1
  O  O1759  1  0.95277421  0.66635419  0.91995890  1
  C  C1760  1  0.79463973  0.67488842  0.81657880  1
  N  N1761  1  0.77038380  0.70785245  0.91090345  1
  C  C1762  1  0.81286863  0.66517802  0.86905014  1
  C  C1763  1  0.84495407  0.61255580  0.82692997  1
  C  C1764  1  0.83881073  0.63643683  0.87532441  1
  Cu  Cu1765  1  0.93488240  0.56140160  0.88008076  1
  O  O1766  1  0.88677872  0.57199278  0.87513693  1
  O  O1767  1  0.98333274  0.54241581  0.89768018  1
  O  O1768  1  0.95101320  0.61412889  0.86657602  1
  C  C1769  1  0.96560568  0.63486433  0.90142572  1
  C  C1770  1  0.80544113  0.68956103  0.92199463  1
  H  H1771  1  0.85497030  0.62950612  0.91565053  1
  C  C1772  1  0.86854693  0.57661937  0.82693558  1
  Cu  Cu1773  1  0.97830128  0.70926981  0.93905772  1
  O  O1774  1  0.82390522  0.68825914  0.96396728  1
  H  H1775  1  0.97115172  0.65098541  0.78723569  1
  O  O1776  1  0.96278142  0.73640955  0.87535913  1
  H  H1777  1  0.85456757  0.51374432  0.79191996  1
  C  C1778  1  0.80229511  0.65271623  0.76820001  1
  C  C1779  1  0.97863716  0.68114824  0.77606690  1
  C  C1780  1  0.95324906  0.71559003  0.77366457  1
  C  C1781  1  0.75656274  0.73474423  0.95678358  1
  H  H1782  1  0.98994253  0.50011347  0.98900299  1
  N  N1783  1  0.87943147  0.56788686  0.77355205  1
  C  C1784  1  0.93765111  0.72753092  0.83595082  1
  H  H1785  1  0.80743966  0.63735226  0.99933059  1
  C  C1786  1  0.82561621  0.62092309  0.77590375  1
  C  C1787  1  0.87104630  0.53232151  0.76194842  1
  O  O1788  1  0.90610132  0.73206266  0.84627155  1
  H  H1789  1  0.96781263  0.74085759  0.75191170  1
  O  O1790  1  0.50266322  0.81383797  0.77114039  1
  C  C1791  1  0.73411522  0.98046653  0.91863222  1
  C  C1792  1  0.70966514  0.95011948  0.93036408  1
  H  H1793  1  0.71587080  0.91984109  0.91870814  1
  C  C1794  1  0.67948540  0.95962790  0.96281660  1
  H  H1795  1  0.64863982  0.87318325  0.96416743  1
  N  N1796  1  0.66790240  0.89251762  0.97706767  1
  C  C1797  1  0.65060700  0.92972138  0.98253251  1
  O  O1798  1  0.52428535  0.97863415  0.89321775  1
  H  H1799  1  0.56449726  0.77388177  0.75280780  1
  C  C1800  1  0.67276110  0.99716348  0.98409259  1
  O  O1801  1  0.62007392  0.93928144  0.99248574  1
  O  O1802  1  0.75895198  0.75787048  0.79787500  1
  C  C1803  1  0.78833458  0.75636411  0.97757520  1
  H  H1804  1  0.80870875  0.75783603  0.94100462  1
  O  O1805  1  0.78266847  0.82697261  0.96963522  1
  O  O1806  1  0.95637730  0.92911375  0.84862992  1
  O  O1807  1  0.78782341  0.81132425  0.75659514  1
  O  O1808  1  0.76912217  0.94356199  0.84377179  1
  O  O1809  1  0.86585465  0.98409133  0.87313712  1
  Cu  Cu1810  1  0.91270315  0.95777220  0.86272623  1
  C  C1811  1  0.96965198  0.92400626  0.80060772  1
  H  H1812  1  0.82573645  0.95885617  0.78798745  1
  C  C1813  1  0.77474629  0.78375187  0.77770783  1
  C  C1814  1  0.81821717  0.98854034  0.93978883  1
  C  C1815  1  0.85647474  0.99656635  0.92292793  1
  C  C1816  1  0.76747280  0.96852777  0.88059185  1
  Cu  Cu1817  1  0.89991954  0.90825219  0.76541461  1
  O  O1818  1  0.84860135  0.89699595  0.77024287  1
  H  H1819  1  0.99053293  0.97673559  0.91244831  1
  H  H1820  1  0.81007821  0.95685276  0.93421599  1
  C  C1821  1  0.91868152  0.91239202  0.97998852  1
  O  O1822  1  0.90289524  0.89013864  0.95004929  1
  O  O1823  1  0.95056760  0.91435069  0.75825488  1
