# generated using pymatgen
data_CuH28C36(NO2)4
_symmetry_space_group_name_H-M   'P 1'
_cell_length_a   22.98817398
_cell_length_b   30.37379858
_cell_length_c   14.43287705
_cell_angle_alpha   90.00000000
_cell_angle_beta   90.00000000
_cell_angle_gamma   90.00000000
_symmetry_Int_Tables_number   1
_chemical_formula_structural   CuH28C36(NO2)4
_chemical_formula_sum   'Cu12 H336 C432 N48 O96'
_cell_volume   10077.58560421
_cell_formula_units_Z   12
loop_
 _symmetry_equiv_pos_site_id
 _symmetry_equiv_pos_as_xyz
  1  'x, y, z'
loop_
 _atom_site_type_symbol
 _atom_site_label
 _atom_site_symmetry_multiplicity
 _atom_site_fract_x
 _atom_site_fract_y
 _atom_site_fract_z
 _atom_site_occupancy
  O  O0  1  0.15659962  0.13757207  0.32891486  1
  C  C1  1  0.18658720  0.11736012  0.40390039  1
  C  C2  1  0.16497299  0.18316824  0.30980665  1
  H  H3  1  0.19207591  0.18589821  0.24964953  1
  C  C4  1  0.10890648  0.21065622  0.29388389  1
  H  H5  1  0.18597439  0.20188108  0.36418468  1
  C  C6  1  0.13481316  0.04169951  0.37207783  1
  H  H7  1  0.11096646  0.05119561  0.31051789  1
  C  C8  1  0.17081701  0.06997805  0.42268220  1
  C  C9  1  0.05604482  0.19195403  0.31926582  1
  H  H10  1  0.05382027  0.15746470  0.33996193  1
  H  H11  1  0.09352643  0.09789712  0.17523488  1
  O  O12  1  0.04841570  0.04244979  0.14122104  1
  C  C13  1  0.07468851  0.08123176  0.11389464  1
  H  H14  1  0.16913495  0.14001673  0.08876455  1
  H  H15  1  0.04278061  0.10735277  0.08992752  1
  H  H16  1  0.13962905  0.01296028  0.10630722  1
  H  H17  1  0.16397610  0.21496805  0.11603396  1
  O  O18  1  0.22006166  0.13665806  0.44899223  1
  C  C19  1  0.12502202  0.08101515  0.03794789  1
  C  C20  1  0.17051075  0.11267393  0.03375337  1
  C  C21  1  0.24941180  0.01344673  0.18860252  1
  C  C22  1  0.17607368  0.24456043  0.07460067  1
  C  C23  1  0.00503471  0.21820407  0.31311520  1
  C  C24  1  0.01183281  0.04860990  0.22568499  1
  C  C25  1  0.01615812  0.00867133  0.28338664  1
  H  H26  1  0.12690474  0.20986879  0.46136934  1
  C  C27  1  0.20100113  0.05269861  0.49877748  1
  C  C28  1  0.11261399  0.25303660  0.26215798  1
  C  C29  1  0.24570176  0.29457525  0.00884478  1
  N  N30  1  0.03803903  0.36427500  0.48618280  1
  C  C31  1  0.14848040  0.41732064  0.15328551  1
  C  C32  1  0.00819477  0.25998817  0.27843470  1
  C  C33  1  0.23339842  0.46453143  0.47978537  1
  C  C34  1  0.23389694  0.25578745  0.05793210  1
  H  H35  1  0.11043531  0.48576781  0.14091653  1
  C  C36  1  0.08972182  0.47529225  0.34849961  1
  C  C37  1  0.13464090  0.27275849  0.03480993  1
  H  H38  1  0.02472913  0.34077256  0.20600939  1
  H  H39  1  0.06316172  0.46678311  0.29010517  1
  C  C40  1  0.06779501  0.32133782  0.21570161  1
  H  H41  1  0.15602198  0.26712966  0.24870795  1
  C  C42  1  0.08229538  0.37018681  0.42941600  1
  C  C43  1  0.09520353  0.39346849  0.17282470  1
  C  C44  1  0.17522855  0.47959159  0.44731449  1
  C  C45  1  0.15093091  0.46329290  0.14361343  1
  C  C46  1  0.24420109  0.43204737  0.14321003  1
  O  O47  1  0.11056277  0.34515432  0.19371757  1
  O  O48  1  0.04926292  0.40976584  0.17535727  1
  H  H49  1  0.21563290  0.36254782  0.15660008  1
  C  C50  1  0.20990324  0.47187810  0.13019044  1
  C  C51  1  0.14770967  0.46117526  0.36849294  1
  H  H52  1  0.18971104  0.30528380  0.37951571  1
  C  C53  1  0.14038093  0.36590157  0.46012770  1
  C  C54  1  0.23288555  0.28975862  0.39257134  1
  H  H55  1  0.17532539  0.37437699  0.41199313  1
  H  H56  1  0.16812607  0.43526551  0.32392016  1
  C  C57  1  0.06197406  0.27891496  0.25129909  1
  H  H58  1  0.08629498  0.26873944  0.03706114  1
  H  H59  1  0.06859252  0.37919729  0.35856321  1
  C  C60  1  0.20563705  0.39709260  0.15093832  1
  C  C61  1  0.21518779  0.07339726  0.90155765  1
  C  C62  1  0.16886750  0.04166695  0.90706860  1
  N  N63  1  0.09041587  0.10346298  0.70910563  1
  C  C64  1  0.06528049  0.08641179  0.78489977  1
  C  C65  1  0.09084770  0.07881477  0.63296227  1
  C  C66  1  0.21322571  0.10998159  0.96305928  1
  C  C67  1  0.12438172  0.04614282  0.97266424  1
  C  C68  1  0.06722767  0.03586173  0.63429766  1
  H  H69  1  0.08684236  0.02582897  0.97295432  1
  H  H70  1  0.07296014  0.11018850  0.84262931  1
  C  C71  1  0.04276365  0.04436076  0.79304531  1
  H  H72  1  0.11373827  0.09322863  0.57126088  1
  H  H73  1  0.12968641  0.01534441  0.78809777  1
  C  C74  1  0.16448849  0.00660648  0.83499652  1
  H  H75  1  0.24463218  0.17639073  0.93002223  1
  C  C76  1  0.04591134  0.01768441  0.71323445  1
  H  H77  1  0.13879111  0.22639448  0.78684055  1
  C  C78  1  0.17577727  0.21641389  0.58024955  1
  H  H79  1  0.23036972  0.07286641  0.54300216  1
  H  H80  1  0.02862792  0.03473075  0.86304820  1
  H  H81  1  0.19112001  0.23746988  0.63538997  1
  O  O82  1  0.22943035  0.15127028  0.76950762  1
  H  H83  1  0.06578702  0.01675727  0.57273821  1
  C  C84  1  0.18995248  0.00915275  0.52427165  1
  H  H85  1  0.18341620  0.18139711  0.58634785  1
  C  C86  1  0.14627419  0.23332621  0.51151182  1
  N  N87  1  0.01606097  0.46932337  0.64864232  1
  H  H88  1  0.07228398  0.25645003  0.74252000  1
  C  C89  1  0.11889793  0.25782097  0.75968887  1
  H  H90  1  0.21985959  0.27453972  0.84265649  1
  H  H91  1  0.21526317  0.44346538  0.98768424  1
  H  H92  1  0.13741494  0.26936870  0.50559113  1
  C  C93  1  0.24340723  0.33950093  0.65225526  1
  C  C94  1  0.20054663  0.32167903  0.98000093  1
  H  H95  1  0.23889810  0.28193256  0.54093479  1
  C  C96  1  0.15040318  0.35578575  0.55331087  1
  H  H97  1  0.07640497  0.34663992  0.75961022  1
  C  C98  1  0.02252037  0.47828151  0.73909967  1
  C  C99  1  0.12209046  0.45924270  0.72327858  1
  C  C100  1  0.17705625  0.44777752  0.76616778  1
  C  C101  1  0.14945465  0.29685218  0.74489287  1
  H  H102  1  0.00190290  0.35182201  0.61122394  1
  O  O103  1  0.21716512  0.43111399  0.72682936  1
  C  C104  1  0.20974870  0.29623790  0.78184995  1
  C  C105  1  0.06028623  0.45559686  0.59294528  1
  H  H106  1  0.15054237  0.43656287  0.58108341  1
  H  H107  1  0.08249606  0.48315556  0.85657804  1
  C  C108  1  0.20845925  0.35046036  0.59313137  1
  O  O109  1  0.17968743  0.45440650  0.86999466  1
  C  C110  1  0.10113955  0.34843273  0.61424225  1
  C  C111  1  0.11536991  0.44833890  0.62788306  1
  C  C112  1  0.04585360  0.35321921  0.57501500  1
  H  H113  1  0.04581996  0.44824147  0.51940584  1
  H  H114  1  0.20191878  0.35442864  0.94740027  1
  C  C115  1  0.22178898  0.43446742  0.91259089  1
  C  C116  1  0.11431910  0.34214330  0.71630189  1
  H  H117  1  0.15283369  0.36180317  0.74028228  1
  C  C118  1  0.07557523  0.47549306  0.78093968  1
  N  N119  1  0.14471629  0.31034078  0.98962680  1
  C  C120  1  0.18573404  0.60417665  0.37111176  1
  C  C121  1  0.08488662  0.63039380  0.36658257  1
  C  C122  1  0.02352415  0.62566409  0.41568437  1
  C  C123  1  0.12730719  0.60408402  0.40657912  1
  C  C124  1  0.08289572  0.65966656  0.29167513  1
  H  H125  1  0.13286528  0.60400941  0.20119846  1
  C  C126  1  0.20715193  0.62627587  0.29390935  1
  C  C127  1  0.11901656  0.67753718  0.22223548  1
  C  C128  1  0.18050335  0.67655378  0.19214396  1
  H  H129  1  0.03772122  0.67436646  0.28675277  1
  C  C130  1  0.08230311  0.55482188  0.19791302  1
  C  C131  1  0.03728866  0.53659799  0.22117435  1
  N  N132  1  0.13358305  0.57239983  0.17523683  1
  Cu  Cu133  1  0.20709222  0.54857880  0.23397520  1
  Cu  Cu134  1  0.18350240  0.56195610  0.07237428  1
  H  H135  1  0.11685378  0.58592128  0.46957151  1
  C  C136  1  0.08212554  0.70811270  0.17416611  1
  C  C137  1  0.22738672  0.64748915  0.22611777  1
  C  C138  1  0.19381322  0.69879143  0.10933648  1
  H  H139  1  0.22744668  0.54178460  0.42011981  1
  H  H140  1  0.10480582  0.64131790  0.03983674  1
  N  N141  1  0.21500521  0.71915967  0.41303304  1
  H  H142  1  0.03777240  0.63231556  0.49084226  1
  H  H143  1  0.23824365  0.69896079  0.08184219  1
  C  C144  1  0.23373378  0.57851485  0.42317565  1
  H  H145  1  0.23524755  0.58872865  0.49472465  1
  H  H146  1  0.24225356  0.71915530  0.27026650  1
  C  C147  1  0.08649799  0.52382646  0.47339855  1
  N  N148  1  0.23079279  0.51587846  0.11809037  1
  N  N149  1  0.05933626  0.50210155  0.40388762  1
  C  C150  1  0.15106030  0.72723830  0.06866179  1
  H  H151  1  0.21776567  0.65340205  0.00204775  1
  C  C152  1  0.14246143  0.51189000  0.49507093  1
  H  H153  1  0.15708518  0.74907901  0.00425700  1
  H  H154  1  0.03551085  0.71615462  0.19452044  1
  N  N155  1  0.09613506  0.73118120  0.09914722  1
  C  C156  1  0.24841447  0.69663509  0.47260185  1
  O  O157  1  0.01716604  0.59971609  0.01583526  1
  C  C158  1  0.20058025  0.75985476  0.43425636  1
  C  C159  1  0.10681826  0.87572940  0.49046842  1
  H  H160  1  0.19178193  0.99059175  0.04346770  1
  H  H161  1  0.17257734  0.77591849  0.37929832  1
  O  O162  1  0.10640032  0.84471697  0.30264959  1
  H  H163  1  0.07350619  0.82543123  0.01485912  1
  C  C164  1  0.12581251  0.91091366  0.15538213  1
  C  C165  1  0.16605235  0.98285616  0.10474363  1
  C  C166  1  0.12894474  0.94192264  0.08333199  1
  H  H167  1  0.23173363  0.96286522  0.34088506  1
  C  C168  1  0.12940269  0.99943051  0.40433502  1
  N  N169  1  0.15886018  0.98004711  0.47458731  1
  O  O170  1  0.06807344  0.77955764  0.35798219  1
  C  C171  1  0.08434659  0.85809258  0.04163963  1
  H  H172  1  0.05359131  0.89788316  0.31278200  1
  C  C173  1  0.09819639  0.86934525  0.13392251  1
  C  C174  1  0.04085297  0.96739079  0.25616824  1
  O  O175  1  0.20058411  0.98592543  0.19014793  1
  H  H176  1  0.13034262  0.80777908  0.19368256  1
  C  C177  1  0.03568246  0.93238452  0.31940429  1
  H  H178  1  0.05038997  0.81668392  0.21621644  1
  H  H179  1  0.06304497  0.96412463  0.18820726  1
  H  H180  1  0.09742662  0.97861840  0.36955593  1
  C  C181  1  0.09654411  0.83066136  0.47207620  1
  C  C182  1  0.09023673  0.81357227  0.37528954  1
  H  H183  1  0.14507882  0.91929626  0.22154363  1
  H  H184  1  0.10701843  0.90084224  0.43567383  1
  C  C185  1  0.09616949  0.83288083  0.21336608  1
  N  N186  1  0.01768684  0.93702767  0.40760153  1
  H  H187  1  0.11818500  0.53847290  0.82639565  1
  C  C188  1  0.13786650  0.55989586  0.87677792  1
  C  C189  1  0.19846802  0.56534507  0.87743237  1
  C  C190  1  0.05549219  0.69171152  0.83615343  1
  C  C191  1  0.10663461  0.58577149  0.94140120  1
  C  C192  1  0.09276137  0.57949434  0.65700455  1
  H  H193  1  0.08836755  0.54597767  0.68428110  1
  N  N194  1  0.14722381  0.58954076  0.64323669  1
  C  C195  1  0.15951877  0.63176955  0.61836393  1
  C  C196  1  0.05750891  0.65198639  0.61456606  1
  C  C197  1  0.04548990  0.60869917  0.63922671  1
  C  C198  1  0.11666528  0.66301955  0.59970965  1
  H  H199  1  0.13287136  0.69590813  0.57234488  1
  N  N200  1  0.10532119  0.67143354  0.81407463  1
  H  H201  1  0.20652604  0.63648629  0.60607685  1
  O  O202  1  0.01970522  0.71852875  0.56246418  1
  C  C203  1  0.04185419  0.58549854  0.95301688  1
  O  O204  1  0.01075995  0.56379190  0.86094302  1
  H  H205  1  0.16229106  0.52531081  0.55879501  1
  H  H206  1  0.10676523  0.63821360  0.81604189  1
  C  C207  1  0.15657941  0.69260737  0.80994520  1
  H  H208  1  0.19386848  0.66854124  0.80939336  1
  C  C209  1  0.19164205  0.62557418  0.97529248  1
  C  C210  1  0.01045108  0.68219359  0.58769815  1
  H  H211  1  0.22570058  0.54804338  0.83039471  1
  H  H212  1  0.02139335  0.66465691  0.84087101  1
  C  C213  1  0.13395466  0.61867221  0.99606816  1
  N  N214  1  0.22385011  0.59883003  0.92224852  1
  H  H215  1  0.05281646  0.54246282  0.51550234  1
  H  H216  1  0.00017731  0.59617170  0.65180117  1
  C  C217  1  0.04992361  0.73685065  0.83729927  1
  C  C218  1  0.15819059  0.73720784  0.81981660  1
  H  H219  1  0.01200913  0.68117392  0.99169654  1
  O  O220  1  0.21946656  0.99822243  0.77111239  1
  O  O221  1  0.01527747  0.95399225  0.62861687  1
  H  H222  1  0.20008844  0.75642439  0.81420903  1
  C  C223  1  0.22287416  0.78066717  0.51479073  1
  H  H224  1  0.00836416  0.75422840  0.85229937  1
  H  H225  1  0.00119604  0.83973692  0.59542388  1
  H  H226  1  0.11904470  0.80587706  0.69613569  1
  N  N227  1  0.23398111  0.89420646  0.87279242  1
  C  C228  1  0.08273539  0.89265799  0.97515127  1
  H  H229  1  0.01336382  0.85889539  0.71331099  1
  N  N230  1  0.13084426  0.86219787  0.65054398  1
  O  O231  1  0.15357074  0.82783801  0.84093943  1
  O  O232  1  0.05889617  0.82809510  0.84955301  1
  H  H233  1  0.21500116  0.95014096  0.91601740  1
  C  C234  1  0.11462953  0.82183746  0.62888479  1
  H  H235  1  0.20572593  0.81205859  0.53907398  1
  C  C236  1  0.06010234  0.87977385  0.87891597  1
  H  H237  1  0.08042318  0.76611610  0.55021063  1
  C  C238  1  0.12330857  0.88790601  0.57801949  1
  H  H239  1  0.13309595  0.92259125  0.59814109  1
  Cu  Cu240  1  0.16528113  0.88179999  0.77894595  1
  C  C241  1  0.10383951  0.75904859  0.83248051  1
  C  C242  1  0.09495430  0.80183666  0.54830671  1
  H  H243  1  0.21024281  0.99485709  0.58560035  1
  C  C244  1  0.21808166  0.96332986  0.71911512  1
  H  H245  1  0.01203114  0.88716993  0.87410203  1
  H  H246  1  0.10065158  0.96242495  0.94359647  1
  H  H247  1  0.14973301  0.97512649  0.86511433  1
  O  O248  1  0.17624995  0.93777769  0.72387749  1
  C  C249  1  0.02102767  0.97030531  0.71469078  1
  H  H250  1  0.07766492  0.90092391  0.81868632  1
  C  C251  1  0.10706194  0.80620229  0.84514609  1
  H  H252  1  0.23390399  0.88950624  0.60907918  1
  C  C253  1  0.24779296  0.92426401  0.93514873  1
  O  O254  1  0.00213459  0.95546211  0.78341727  1
  C  C255  1  0.10291857  0.93562662  0.99502223  1
  N  N256  1  0.36754320  0.10514715  0.09617378  1
  C  C257  1  0.36588710  0.12398836  0.18208986  1
  C  C258  1  0.41277550  0.07939405  0.07851547  1
  H  H259  1  0.40972116  0.13558483  0.31864238  1
  C  C260  1  0.40905378  0.11939964  0.24718819  1
  C  C261  1  0.45798888  0.09243391  0.22238309  1
  C  C262  1  0.45927864  0.06942430  0.14145848  1
  H  H263  1  0.41132622  0.05330203  0.38067536  1
  C  C264  1  0.33791403  0.03820066  0.28005140  1
  H  H265  1  0.32092325  0.14014362  0.17805268  1
  H  H266  1  0.36135893  0.05084044  0.21431887  1
  C  C267  1  0.36718016  0.03884966  0.36285484  1
  H  H268  1  0.38698737  0.18719657  0.06650643  1
  O  O269  1  0.27360197  0.19284847  0.12839566  1
  H  H270  1  0.38718412  0.20213587  0.17533823  1
  C  C271  1  0.39105318  0.21777525  0.10577644  1
  C  C272  1  0.28491302  0.22733521  0.09235336  1
  C  C273  1  0.28665903  0.01215414  0.27498501  1
  N  N274  1  0.35079583  0.01305198  0.43267832  1
  H  H275  1  0.33000777  0.10501890  0.46978903  1
  H  H276  1  0.40829512  0.06673678  0.00372683  1
  H  H277  1  0.29277707  0.14209684  0.00551735  1
  H  H278  1  0.38079408  0.22758516  0.37618481  1
  C  C279  1  0.33753390  0.24492532  0.38375995  1
  H  H280  1  0.49338862  0.04638863  0.12810681  1
  O  O281  1  0.34003194  0.24401300  0.08524169  1
  C  C282  1  0.45269340  0.23959945  0.09721280  1
  O  O283  1  0.25746104  0.03666188  0.12419919  1
  H  H284  1  0.49686832  0.18638111  0.17705605  1
  O  O285  1  0.49406631  0.10466636  0.37760056  1
  C  C286  1  0.49977570  0.21841685  0.13973172  1
  H  H287  1  0.46389354  0.15829191  0.48906356  1
  C  C288  1  0.30716819  0.25927724  0.30655523  1
  H  H289  1  0.31921414  0.25452767  0.23211270  1
  C  C290  1  0.41458744  0.31848661  0.27293953  1
  H  H291  1  0.29253867  0.43061893  0.14369911  1
  N  N292  1  0.25483981  0.27931962  0.30915121  1
  O  O293  1  0.38013393  0.49644959  0.49317257  1
  O  O294  1  0.25848616  0.43104918  0.42795882  1
  C  C295  1  0.49325056  0.27763673  0.33808091  1
  H  H296  1  0.45591967  0.37415479  0.07239240  1
  C  C297  1  0.39390165  0.35762196  0.48480817  1
  O  O298  1  0.36272865  0.36170601  0.08751231  1
  C  C299  1  0.33232041  0.34737859  0.17344531  1
  C  C300  1  0.33065755  0.37622413  0.01970932  1
  H  H301  1  0.30855468  0.31667532  0.15035230  1
  H  H302  1  0.42988709  0.30049684  0.21060190  1
  C  C303  1  0.34800003  0.37853638  0.42911776  1
  C  C304  1  0.30782160  0.41072434  0.47710422  1
  Cu  Cu305  1  0.48667233  0.42607028  0.39727621  1
  H  H306  1  0.29404462  0.38800891  0.31247869  1
  H  H307  1  0.40953975  0.29515603  0.03461358  1
  C  C308  1  0.43626692  0.32517655  0.45073972  1
  C  C309  1  0.44604339  0.30726432  0.35672565  1
  C  C310  1  0.33503321  0.37153742  0.33677606  1
  H  H311  1  0.29698132  0.37350217  0.17780648  1
  C  C312  1  0.36392162  0.34499100  0.26830194  1
  C  C313  1  0.44905916  0.28256140  0.06420560  1
  C  C314  1  0.49688204  0.35630478  0.04227624  1
  C  C315  1  0.31350269  0.25332119  0.47306145  1
  O  O316  1  0.45759329  0.45610109  0.49730276  1
  C  C317  1  0.25993004  0.27483042  0.47492372  1
  C  C318  1  0.37699479  0.11575335  0.72697634  1
  H  H319  1  0.39563249  0.12603986  0.79564189  1
  O  O320  1  0.45344511  0.06636421  0.85055075  1
  O  O321  1  0.36115156  0.03493616  0.88413386  1
  C  C322  1  0.42850983  0.17250694  0.91936852  1
  C  C323  1  0.40946551  0.09992890  0.65338994  1
  C  C324  1  0.31775735  0.12652427  0.70723577  1
  H  H325  1  0.40885162  0.14293252  0.94164662  1
  C  C326  1  0.42850013  0.20515730  0.63153587  1
  O  O327  1  0.39963616  0.21995638  0.54788710  1
  C  C328  1  0.30246433  0.12480038  0.61238514  1
  H  H329  1  0.39028073  0.18848741  0.66233151  1
  O  O330  1  0.30451803  0.13851755  0.86794116  1
  H  H331  1  0.45703080  0.09129376  0.65551537  1
  N  N332  1  0.38892191  0.09030370  0.56958570  1
  H  H333  1  0.35553375  0.21091002  0.87218541  1
  C  C334  1  0.40144954  0.21036382  0.88638358  1
  C  C335  1  0.40959401  0.02796325  0.85956329  1
  C  C336  1  0.34566414  0.23937242  0.55983819  1
  C  C337  1  0.33983124  0.10864098  0.54431103  1
  C  C338  1  0.27849743  0.14103714  0.78014288  1
  H  H339  1  0.43700654  0.23794351  0.66984845  1
  C  C340  1  0.48349651  0.17504668  0.62836098  1
  C  C341  1  0.49969813  0.06279255  0.89422095  1
  C  C342  1  0.26276041  0.14286154  0.94229742  1
  H  H343  1  0.31402167  0.01646084  0.69405485  1
  C  C344  1  0.43864349  0.24805045  0.88191929  1
  H  H345  1  0.25897752  0.13388774  0.59380780  1
  O  O346  1  0.32258034  0.24412459  0.63327139  1
  N  N347  1  0.48609420  0.16700466  0.92740376  1
  H  H348  1  0.25184543  0.06892779  0.85027839  1
  C  C349  1  0.49748838  0.24571394  0.90099352  1
  C  C350  1  0.49268748  0.15088890  0.54785037  1
  H  H351  1  0.49773855  0.18012786  0.77853021  1
  O  O352  1  0.39439149  0.38345814  0.65722969  1
  H  H353  1  0.28973213  0.30645099  0.98143871  1
  N  N354  1  0.46192618  0.48550513  0.73934368  1
  O  O355  1  0.25692301  0.48118450  0.54296952  1
  H  H356  1  0.45701146  0.31081328  0.58948715  1
  H  H357  1  0.47485941  0.47087508  0.67736406  1
  C  C358  1  0.30179312  0.38959246  0.95498484  1
  C  C359  1  0.46865381  0.30356602  0.51989101  1
  C  C360  1  0.42336121  0.46151707  0.78814394  1
  H  H361  1  0.34748505  0.31968234  0.71041371  1
  C  C362  1  0.26575587  0.40669123  0.88178444  1
  C  C363  1  0.40055090  0.47790684  0.86882065  1
  C  C364  1  0.25651260  0.31488534  0.73746596  1
  C  C365  1  0.39765973  0.37015804  0.58080518  1
  C  C366  1  0.43159359  0.49466901  0.50521968  1
  C  C367  1  0.32043262  0.31594636  0.77085060  1
  H  H368  1  0.27054471  0.39538437  0.80855549  1
  C  C369  1  0.40877717  0.28859733  0.84721505  1
  H  H370  1  0.37061205  0.46027306  0.91436010  1
  O  O371  1  0.43181623  0.32244466  0.84143433  1
  O  O372  1  0.34971431  0.28308579  0.83713429  1
  H  H373  1  0.32663163  0.34791142  0.81180438  1
  H  H374  1  0.41205276  0.42862862  0.75478417  1
  H  H375  1  0.28461964  0.39803164  0.53911385  1
  H  H376  1  0.49660929  0.36040275  0.96792807  1
  H  H377  1  0.33842863  0.43982810  0.50571111  1
  C  C378  1  0.31683246  0.55641307  0.32175635  1
  H  H379  1  0.39882438  0.60531181  0.41029834  1
  C  C380  1  0.32353936  0.67162991  0.14427699  1
  C  C381  1  0.37648466  0.56070350  0.29916506  1
  O  O382  1  0.28308924  0.53181033  0.27244204  1
  O  O383  1  0.29835631  0.57901854  0.39091491  1
  C  C384  1  0.41604073  0.58795054  0.35084069  1
  C  C385  1  0.31927140  0.71779219  0.16580215  1
  C  C386  1  0.40179006  0.54127445  0.22284528  1
  O  O387  1  0.28648015  0.64215625  0.16578253  1
  C  C388  1  0.47347491  0.59139191  0.32501416  1
  C  C389  1  0.36985461  0.65823135  0.07996581  1
  C  C390  1  0.43324962  0.72044074  0.34198657  1
  H  H391  1  0.32958093  0.59686206  0.06212442  1
  H  H392  1  0.40363448  0.72777765  0.28319572  1
  C  C393  1  0.41063105  0.69113864  0.05887043  1
  C  C394  1  0.36799175  0.61585848  0.04463224  1
  N  N395  1  0.49436231  0.57533475  0.24767495  1
  H  H396  1  0.48704416  0.65347428  0.20748744  1
  H  H397  1  0.25151781  0.66122989  0.45224735  1
  C  C398  1  0.40488945  0.73534638  0.08226035  1
  C  C399  1  0.48828820  0.69832287  0.33711942  1
  C  C400  1  0.27881620  0.73822631  0.23528158  1
  C  C401  1  0.41533958  0.73417231  0.43018897  1
  C  C402  1  0.45951812  0.55181840  0.19898573  1
  O  O403  1  0.35052641  0.52806452  0.02194280  1
  H  H404  1  0.49702659  0.70938959  0.19621139  1
  H  H405  1  0.27221838  0.52036283  0.10301549  1
  H  H406  1  0.48804180  0.54243553  0.14100079  1
  H  H407  1  0.37810229  0.51741998  0.17590175  1
  H  H408  1  0.44969619  0.67767253  0.02512728  1
  H  H409  1  0.49999105  0.89951081  0.11110647  1
  C  C410  1  0.30355061  0.98959492  0.42834932  1
  C  C411  1  0.47790880  0.94624427  0.35546275  1
  C  C412  1  0.26862136  0.98648474  0.34953766  1
  C  C413  1  0.35713862  0.75075767  0.13262991  1
  C  C414  1  0.39744708  0.89634849  0.01623514  1
  H  H415  1  0.47490737  0.94045446  0.18269880  1
  O  O416  1  0.41386633  0.92830060  0.06925028  1
  C  C417  1  0.36373911  0.76614336  0.44167013  1
  N  N418  1  0.44030711  0.96387993  0.29825604  1
  H  H419  1  0.32402463  0.75590485  0.40715581  1
  O  O420  1  0.46004773  0.82347081  0.46439759  1
  O  O421  1  0.37166754  0.81416399  0.39990252  1
  C  C422  1  0.41777955  0.83709968  0.41704469  1
  C  C423  1  0.45060703  0.77192081  0.06615075  1
  H  H424  1  0.29450406  0.97352285  0.49605667  1
  H  H425  1  0.30073738  0.95512404  0.03996277  1
  H  H426  1  0.34269713  0.87843225  0.31129102  1
  H  H427  1  0.36651915  0.96270700  0.24198326  1
  C  C428  1  0.39342704  0.93985720  0.28142564  1
  O  O429  1  0.27426418  0.77471994  0.26230216  1
  C  C430  1  0.38304718  0.89783946  0.31844875  1
  C  C431  1  0.47430555  0.90640505  0.39799130  1
  C  C432  1  0.47948903  0.93248890  0.10547526  1
  H  H433  1  0.44491901  0.79598459  0.12388909  1
  H  H434  1  0.35117391  0.78641215  0.14744372  1
  C  C435  1  0.42566389  0.87972453  0.37335712  1
  C  C436  1  0.45965292  0.54318288  0.84590490  1
  C  C437  1  0.41820532  0.52089003  0.90120660  1
  H  H438  1  0.42288031  0.70260597  0.74109343  1
  C  C439  1  0.45803034  0.72515120  0.75604338  1
  H  H440  1  0.47074947  0.57688473  0.87066827  1
  H  H441  1  0.30656509  0.69538446  0.58644724  1
  C  C442  1  0.38765995  0.54410529  0.97535072  1
  C  C443  1  0.27938052  0.71571292  0.54325892  1
  C  C444  1  0.46678130  0.53352571  0.53499664  1
  C  C445  1  0.43583264  0.57186236  0.55183059  1
  H  H446  1  0.46077839  0.64364191  0.57507437  1
  H  H447  1  0.38811925  0.57363952  0.53945893  1
  O  O448  1  0.40072008  0.59436679  0.99252375  1
  C  C449  1  0.48248321  0.52411397  0.76779756  1
  H  H450  1  0.43007947  0.73080348  0.58568840  1
  C  C451  1  0.44687180  0.72696130  0.51233897  1
  C  C452  1  0.47160936  0.60823881  0.56900943  1
  O  O453  1  0.43098519  0.86567931  0.98752802  1
  C  C454  1  0.36263061  0.96945697  0.60638439  1
  C  C455  1  0.26413676  0.75949418  0.56857431  1
  O  O456  1  0.34583004  0.76122800  0.67245749  1
  C  C457  1  0.32026608  0.90493463  0.56211243  1
  H  H458  1  0.34257454  0.95915252  0.85386533  1
  C  C459  1  0.44891635  0.77143533  0.75086438  1
  N  N460  1  0.45458578  0.89971972  0.76256307  1
  H  H461  1  0.39551805  0.81546144  0.66628344  1
  H  H462  1  0.44751356  0.98416232  0.97355857  1
  O  O463  1  0.28505293  0.82248234  0.66421141  1
  N  N464  1  0.36617687  0.93187982  0.55761164  1
  C  C465  1  0.33902722  0.89534488  0.97818858  1
  C  C466  1  0.32499122  0.86114404  0.91419166  1
  C  C467  1  0.31524783  0.98311843  0.66087754  1
  C  C468  1  0.26950611  0.95353671  0.66250256  1
  H  H469  1  0.44543443  0.78915080  0.99761760  1
  C  C470  1  0.40064059  0.91314947  0.78878836  1
  C  C471  1  0.43222311  0.98552328  0.82851418  1
  H  H472  1  0.35978745  0.80294084  0.77432802  1
  C  C473  1  0.26973830  0.91451177  0.61082682  1
  H  H474  1  0.25305258  0.83446355  0.82458709  1
  C  C475  1  0.38682237  0.95451070  0.82479978  1
  C  C476  1  0.38842703  0.78686808  0.71647693  1
  H  H477  1  0.36970261  0.88596790  0.77750036  1
  C  C478  1  0.48938046  0.97408658  0.79863920  1
  C  C479  1  0.29610164  0.92682548  0.99400918  1
  C  C480  1  0.29447789  0.78630459  0.64013874  1
  C  C481  1  0.27054583  0.86091314  0.87243545  1
  H  H482  1  0.35361747  0.83240666  0.90456945  1
  H  H483  1  0.33347215  0.87405801  0.53293270  1
  C  C484  1  0.49447047  0.80233908  0.75752918  1
  C  C485  1  0.49621278  0.93123403  0.76563186  1
  H  H486  1  0.48785729  0.83685406  0.74470515  1
  H  H487  1  0.40313282  0.98759268  0.59322593  1
  H  H488  1  0.35436467  0.77260335  0.51519584  1
  C  C489  1  0.49165845  0.99365705  0.99460542  1
  H  H490  1  0.65152989  0.19313324  0.32333149  1
  N  N491  1  0.63566266  0.13678096  0.23287153  1
  C  C492  1  0.58957421  0.13852219  0.17687609  1
  C  C493  1  0.68635435  0.13354614  0.18794534  1
  C  C494  1  0.69187003  0.13514011  0.09160642  1
  H  H495  1  0.67157688  0.06063502  0.38910132  1
  H  H496  1  0.65670246  0.06506959  0.16400769  1
  C  C497  1  0.60111123  0.01926891  0.07800947  1
  C  C498  1  0.66078715  0.03583324  0.11308444  1
  H  H499  1  0.57799706  0.10290794  0.41310179  1
  C  C500  1  0.58957234  0.13810333  0.08100591  1
  C  C501  1  0.68911397  0.20645742  0.35949705  1
  O  O502  1  0.69776186  0.13245908  0.41988381  1
  H  H503  1  0.55248391  0.14207817  0.21756922  1
  H  H504  1  0.63547291  0.20861501  0.15266015  1
  O  O505  1  0.54241589  0.06210782  0.27948341  1
  C  C506  1  0.54079058  0.09396562  0.45648056  1
  C  C507  1  0.68372042  0.03398746  0.43620471  1
  H  H508  1  0.72292681  0.13094503  0.23872931  1
  H  H509  1  0.54121912  0.05746238  0.46885634  1
  C  C510  1  0.64374636  0.13592921  0.03297941  1
  H  H511  1  0.61374694  0.01799796  0.29269816  1
  O  O512  1  0.69632902  0.00534158  0.16027132  1
  C  C513  1  0.72275082  0.17991756  0.42065818  1
  H  H514  1  0.68478860  0.04967083  0.05260022  1
  H  H515  1  0.60077939  0.22082940  0.26097678  1
  C  C516  1  0.60762324  0.23290904  0.19103635  1
  C  C517  1  0.70471701  0.24944104  0.35051648  1
  C  C518  1  0.50202989  0.08508581  0.29965538  1
  H  H519  1  0.54872464  0.14381114  0.04233865  1
  C  C520  1  0.55206789  0.24320319  0.13775535  1
  H  H521  1  0.73661641  0.13295880  0.06376674  1
  C  C522  1  0.72024050  0.10855827  0.49323177  1
  C  C523  1  0.57559440  0.04679635  0.01061805  1
  C  C524  1  0.51242274  0.27243590  0.49264711  1
  C  C525  1  0.63730562  0.49391162  0.20705757  1
  H  H526  1  0.55172068  0.34225888  0.24637237  1
  C  C527  1  0.53989143  0.43172650  0.03967146  1
  H  H528  1  0.74737197  0.40936261  0.11704591  1
  N  N529  1  0.52703727  0.26531313  0.40645714  1
  N  N530  1  0.56475059  0.45277160  0.43730545  1
  O  O531  1  0.74806180  0.48432994  0.26373631  1
  C  C532  1  0.59130767  0.48774948  0.40019675  1
  C  C533  1  0.50141852  0.30810712  0.07295270  1
  C  C534  1  0.56404359  0.36371597  0.30940781  1
  C  C535  1  0.60833323  0.45944011  0.16373717  1
  C  C536  1  0.67820081  0.38179808  0.27182707  1
  C  C537  1  0.73876422  0.38825601  0.26816783  1
  H  H538  1  0.70142050  0.31076620  0.28564440  1
  C  C539  1  0.66431884  0.35402548  0.41511066  1
  H  H540  1  0.61003191  0.42453979  0.19001481  1
  C  C541  1  0.57169183  0.46615448  0.08887837  1
  O  O542  1  0.54613240  0.38986132  0.07244440  1
  C  C543  1  0.68321027  0.27629903  0.28239904  1
  H  H544  1  0.50690939  0.26263211  0.27190371  1
  H  H545  1  0.59422016  0.30756822  0.09594822  1
  H  H546  1  0.56462977  0.34142257  0.37402736  1
  H  H547  1  0.63214470  0.34244797  0.47437493  1
  O  O548  1  0.64963052  0.27491364  0.21365818  1
  O  O549  1  0.52548502  0.39372981  0.30763633  1
  C  C550  1  0.55313592  0.28800191  0.10196439  1
  H  H551  1  0.66693882  0.49029426  0.26628215  1
  C  C552  1  0.72234777  0.36255752  0.42542786  1
  C  C553  1  0.63744533  0.36596168  0.32841343  1
  H  H554  1  0.73874635  0.26387062  0.39640370  1
  H  H555  1  0.61625051  0.09650425  0.60688418  1
  H  H556  1  0.62973884  0.04477697  0.88688121  1
  C  C557  1  0.61386741  0.13999815  0.77977042  1
  H  H558  1  0.64047501  0.10980570  0.76709246  1
  H  H559  1  0.64502149  0.16995888  0.77878640  1
  O  O560  1  0.60344063  0.13974688  0.87559602  1
  O  O561  1  0.70085483  0.13353848  0.90472268  1
  C  C562  1  0.65271999  0.13709294  0.93230541  1
  C  C563  1  0.57903913  0.11865739  0.61998317  1
  C  C564  1  0.56793065  0.14432516  0.70134156  1
  N  N565  1  0.65133611  0.02638849  0.76219800  1
  C  C566  1  0.53940384  0.12089030  0.54590474  1
  C  C567  1  0.51702302  0.20415064  0.92638237  1
  C  C568  1  0.52331196  0.03252107  0.96389842  1
  H  H569  1  0.51995367  0.09628341  0.87636304  1
  H  H570  1  0.59195292  0.07984241  0.99862793  1
  C  C571  1  0.62672764  0.01711122  0.83898219  1
  H  H572  1  0.70496114  0.12232837  0.56188836  1
  C  C573  1  0.51496087  0.16913241  0.71107604  1
  H  H574  1  0.56582651  0.19630686  0.93868356  1
  C  C575  1  0.71664083  0.05748624  0.50244697  1
  H  H576  1  0.68269319  0.00655276  0.63983912  1
  H  H577  1  0.65796661  0.47500303  0.98707807  1
  C  C578  1  0.66503210  0.48646672  0.51203887  1
  O  O579  1  0.69372487  0.43371948  0.89636302  1
  H  H580  1  0.65855914  0.42972148  0.61301021  1
  H  H581  1  0.72816946  0.33456550  0.56777105  1
  O  O582  1  0.50852965  0.43990557  0.97608472  1
  H  H583  1  0.54211994  0.26043147  0.54145285  1
  H  H584  1  0.55456629  0.49939441  0.56253784  1
  C  C585  1  0.59358788  0.34634760  0.64581436  1
  H  H586  1  0.59063295  0.45013361  0.87623531  1
  H  H587  1  0.55920543  0.40958483  0.54169721  1
  C  C588  1  0.64067306  0.44719542  0.55063576  1
  H  H589  1  0.52617427  0.27405672  0.88878477  1
  O  O590  1  0.58764325  0.32534375  0.57686007  1
  C  C591  1  0.69892918  0.46166747  0.95626756  1
  C  C592  1  0.62040665  0.42024841  0.87577695  1
  C  C593  1  0.60033276  0.37095907  0.72821147  1
  H  H594  1  0.61438900  0.40284375  0.94309900  1
  C  C595  1  0.61099677  0.39357435  0.79723006  1
  O  O596  1  0.74071917  0.49130175  0.62968609  1
  C  C597  1  0.58811926  0.43405210  0.51154183  1
  H  H598  1  0.65686917  0.63776813  0.25985927  1
  C  C599  1  0.67672817  0.63161898  0.19004889  1
  C  C600  1  0.58178990  0.65240501  0.12990249  1
  C  C601  1  0.64112116  0.63469682  0.11083724  1
  O  O602  1  0.66900381  0.69308600  0.35545812  1
  C  C603  1  0.59789086  0.54395100  0.10335672  1
  C  C604  1  0.73381770  0.61859278  0.17145018  1
  O  O605  1  0.56766831  0.66222618  0.22398667  1
  H  H606  1  0.56909824  0.68035208  0.41273008  1
  N  N607  1  0.63211647  0.53427414  0.17406535  1
  H  H608  1  0.59694201  0.57900561  0.08719624  1
  O  O609  1  0.54720268  0.65608419  0.06834655  1
  C  C610  1  0.70762490  0.70623729  0.40261660  1
  H  H611  1  0.66271781  0.53274184  0.39550336  1
  C  C612  1  0.56624757  0.51015466  0.06168161  1
  C  C613  1  0.69307711  0.73307150  0.03481642  1
  H  H614  1  0.71332511  0.69904315  0.04597688  1
  C  C615  1  0.63387355  0.74216746  0.03353730  1
  H  H616  1  0.64013827  0.74979490  0.30780125  1
  H  H617  1  0.60856129  0.73122085  0.19951135  1
  C  C618  1  0.66078145  0.62564831  0.02027986  1
  C  C619  1  0.52554185  0.69369133  0.41413615  1
  H  H620  1  0.60262230  0.71618024  0.05414494  1
  H  H621  1  0.71145134  0.61656653  0.45026642  1
  C  C622  1  0.64154600  0.50578734  0.43195816  1
  C  C623  1  0.50548798  0.71443348  0.49754380  1
  H  H624  1  0.53792486  0.51648708  0.00184228  1
  H  H625  1  0.72558272  0.53052695  0.09187399  1
  H  H626  1  0.71167043  0.74315108  0.40541957  1
  H  H627  1  0.51001773  0.61042927  0.36133468  1
  C  C628  1  0.74837593  0.63625778  0.48014062  1
  C  C629  1  0.51273616  0.68135536  0.24322842  1
  H  H630  1  0.56460514  0.50025849  0.34378943  1
  C  C631  1  0.71879753  0.61200242  0.01596231  1
  N  N632  1  0.71698768  0.80526867  0.35086959  1
  C  C633  1  0.70866005  0.84913795  0.21296449  1
  C  C634  1  0.66877760  0.99079874  0.40950935  1
  Cu  Cu635  1  0.51912204  0.78503748  0.44983610  1
  O  O636  1  0.55717990  0.81130695  0.34545064  1
  C  C637  1  0.61930432  0.75944092  0.24183436  1
  H  H638  1  0.59837901  0.95731440  0.15339056  1
  H  H639  1  0.65126203  0.77729128  0.20114277  1
  H  H640  1  0.52553917  0.76474111  0.27525705  1
  H  H641  1  0.68250367  0.87557913  0.42269525  1
  H  H642  1  0.50949501  0.97333024  0.35976395  1
  H  H643  1  0.72243029  0.94991845  0.26940549  1
  H  H644  1  0.56017297  0.80604282  0.19910298  1
  O  O645  1  0.51623295  0.76306486  0.05181354  1
  N  N646  1  0.60939683  0.95370768  0.29792080  1
  H  H647  1  0.67726486  0.86378118  0.16242774  1
  H  H648  1  0.64054667  0.85438093  0.02475252  1
  C  C649  1  0.66874918  0.90833577  0.40005490  1
  C  C650  1  0.68824242  0.94679409  0.44783873  1
  C  C651  1  0.68754365  0.82773094  0.29126550  1
  C  C652  1  0.55152816  0.79689355  0.04028423  1
  C  C653  1  0.57485766  0.97824369  0.10236923  1
  H  H654  1  0.60409530  0.88790046  0.29060317  1
  C  C655  1  0.61179174  0.78622758  0.02949242  1
  H  H656  1  0.64063168  0.82392237  0.30730497  1
  C  C657  1  0.71334260  0.80754833  0.02431460  1
  C  C658  1  0.63154557  0.98992256  0.33009615  1
  O  O659  1  0.53621041  0.83651299  0.03943416  1
  C  C660  1  0.62739498  0.91393809  0.33037093  1
  C  C661  1  0.65609551  0.81985236  0.02417358  1
  C  C662  1  0.56269288  0.78893005  0.26746421  1
  C  C663  1  0.51840451  0.96922048  0.06576825  1
  N  N664  1  0.73350100  0.76542475  0.02896005  1
  H  H665  1  0.74868643  0.83315419  0.02896354  1
  H  H666  1  0.50868222  0.89365688  0.44348822  1
  H  H667  1  0.72551018  0.99526099  0.01200505  1
  C  C668  1  0.66881951  0.59812473  0.80715534  1
  C  C669  1  0.68979623  0.55594009  0.83198952  1
  C  C670  1  0.60551647  0.60440933  0.81947383  1
  O  O671  1  0.58877777  0.65184335  0.80484507  1
  O  O672  1  0.57315334  0.57769465  0.84695163  1
  H  H673  1  0.65746020  0.52951419  0.84786973  1
  C  C674  1  0.53140073  0.66144256  0.81360737  1
  H  H675  1  0.68357489  0.66245928  0.74718302  1
  H  H676  1  0.72355035  0.72348251  0.61003899  1
  C  C677  1  0.70503709  0.63125944  0.77008798  1
  H  H678  1  0.59975138  0.58017167  0.57542001  1
  C  C679  1  0.55395177  0.57062224  0.56728088  1
  C  C680  1  0.54850013  0.71027275  0.57742931  1
  H  H681  1  0.55661505  0.67545746  0.59933890  1
  H  H682  1  0.51440146  0.65079466  0.88322846  1
  N  N683  1  0.52929281  0.60977136  0.56586358  1
  C  C684  1  0.52799345  0.53016431  0.55448734  1
  C  C685  1  0.51220552  0.71065689  0.78600381  1
  O  O686  1  0.61120982  0.72876806  0.58246853  1
  H  H687  1  0.53120703  0.72820915  0.64200223  1
  C  C688  1  0.71591202  0.50302109  0.56307599  1
  H  H689  1  0.63279592  0.62849507  0.96365184  1
  H  H690  1  0.74183800  0.60074800  0.95303383  1
  H  H691  1  0.59950896  0.72811873  0.82743983  1
  C  C692  1  0.55923407  0.73921159  0.79762647  1
  H  H693  1  0.50885048  0.63369327  0.77124157  1
  C  C694  1  0.74757767  0.54803397  0.80793636  1
  O  O695  1  0.72712817  0.54710294  0.52040230  1
  H  H696  1  0.51315736  0.54239329  0.72515970  1
  H  H697  1  0.64953229  0.85561029  0.57684668  1
  H  H698  1  0.52680443  0.99775366  0.80071168  1
  C  C699  1  0.74393887  0.84841401  0.60031379  1
  C  C700  1  0.73758664  0.96796669  0.96509827  1
  C  C701  1  0.64567172  0.95164447  0.71693750  1
  H  H702  1  0.69651901  0.95319089  0.93973870  1
  H  H703  1  0.53400488  0.91377825  0.73603799  1
  H  H704  1  0.72254141  0.84427167  0.84846481  1
  H  H705  1  0.60319030  0.82120117  0.88746888  1
  H  H706  1  0.59142964  0.96851759  0.93736766  1
  O  O707  1  0.61229633  0.86600062  0.77102087  1
  C  C708  1  0.60894282  0.97533762  0.86716897  1
  C  C709  1  0.65662292  0.99591806  0.69927824  1
  H  H710  1  0.65696807  0.92696223  0.66773263  1
  C  C711  1  0.72811846  0.94940860  0.51998156  1
  Cu  Cu712  1  0.50501426  0.87631989  0.93889460  1
  C  C713  1  0.61972200  0.77120606  0.56748110  1
  O  O714  1  0.58148254  0.89034413  0.90836619  1
  C  C715  1  0.61783953  0.94211927  0.80302069  1
  H  H716  1  0.64353570  0.80040761  0.79052736  1
  C  C717  1  0.67749127  0.78723832  0.57976510  1
  O  O718  1  0.58035140  0.79706601  0.54747427  1
  C  C719  1  0.60105394  0.89710711  0.82857939  1
  C  C720  1  0.54904100  0.78463785  0.78340174  1
  C  C721  1  0.59865898  0.81595340  0.80865572  1
  C  C722  1  0.72659770  0.76085581  0.60064214  1
  C  C723  1  0.68650035  0.83301178  0.58339817  1
  O  O724  1  0.94650046  0.15775626  0.40404157  1
  C  C725  1  0.94934890  0.19531218  0.33771702  1
  H  H726  1  0.92536698  0.17740698  0.28123477  1
  C  C727  1  0.89702239  0.13151107  0.39982251  1
  O  O728  1  0.85927647  0.13645068  0.34551030  1
  H  H729  1  0.82948412  0.06245389  0.38434951  1
  H  H730  1  0.91684117  0.21984337  0.36649958  1
  C  C731  1  0.86253664  0.05674411  0.43724673  1
  O  O732  1  0.76903431  0.05877640  0.13966139  1
  H  H733  1  0.87645317  0.03544375  0.21564548  1
  H  H734  1  0.96668927  0.04192167  0.39157928  1
  C  C735  1  0.99213422  0.01217739  0.37396338  1
  C  C736  1  0.89786021  0.09261947  0.46507554  1
  H  H737  1  0.76693540  0.11775432  0.49089712  1
  O  O738  1  0.76150801  0.19063481  0.46872042  1
  H  H739  1  0.89663923  0.02793031  0.02041586  1
  H  H740  1  0.95057296  0.00188591  0.09603523  1
  C  C741  1  0.85393729  0.00477630  0.24644456  1
  O  O742  1  0.99180646  0.08351693  0.24351030  1
  C  C743  1  0.75641068  0.02548854  0.17719660  1
  C  C744  1  0.86419677  0.01623371  0.48647929  1
  C  C745  1  0.76194569  0.37782292  0.35907559  1
  H  H746  1  0.80808398  0.37887806  0.37000561  1
  C  C747  1  0.90480782  0.36459624  0.38535323  1
  H  H748  1  0.91944698  0.35914862  0.23843265  1
  N  N749  1  0.94188813  0.45067056  0.36999117  1
  H  H750  1  0.95336853  0.44285591  0.23164155  1
  O  O751  1  0.87321463  0.28829030  0.36282693  1
  H  H752  1  0.96826153  0.27796574  0.27970744  1
  H  H753  1  0.77667478  0.47186623  0.21977675  1
  H  H754  1  0.85830379  0.31259003  0.47988072  1
  C  C755  1  0.92461544  0.38068166  0.30041195  1
  C  C756  1  0.90673541  0.39176839  0.46790295  1
  C  C757  1  0.92647030  0.43551529  0.45475598  1
  O  O758  1  0.82431490  0.40513692  0.17028099  1
  C  C759  1  0.94033088  0.42562681  0.29477681  1
  C  C760  1  0.87716950  0.32123424  0.40728414  1
  C  C761  1  0.77356180  0.40156637  0.18332364  1
  H  H762  1  0.99779306  0.36886517  0.45340986  1
  H  H763  1  0.78509387  0.31551526  0.49023074  1
  O  O764  1  0.85188870  0.02686909  0.88983222  1
  C  C765  1  0.93655391  0.04423988  0.57971913  1
  H  H766  1  0.84642421  0.03410129  0.67935399  1
  H  H767  1  0.96427664  0.02977848  0.63592029  1
  H  H768  1  0.97561166  0.10934841  0.55177416  1
  H  H769  1  0.78655543  0.03314686  0.77209732  1
  H  H770  1  0.77555420  0.07876991  0.61253456  1
  C  C771  1  0.93736563  0.08611900  0.53712860  1
  C  C772  1  0.77357876  0.00995197  0.62136064  1
  C  C773  1  0.80988762  0.01345777  0.71576743  1
  N  N774  1  0.90307124  0.01127488  0.55620950  1
  C  C775  1  0.75694635  0.05004373  0.57749910  1
  C  C776  1  0.75451021  0.47867929  0.98974040  1
  C  C777  1  0.76019524  0.34596381  0.51310492  1
  H  H778  1  0.91682799  0.32023284  0.76239409  1
  N  N779  1  0.91797380  0.42988306  0.82783495  1
  C  C780  1  0.80549837  0.45898896  0.95214157  1
  C  C781  1  0.88129378  0.44821767  0.76528153  1
  C  C782  1  0.85747366  0.42105561  0.69551910  1
  O  O783  1  0.82805275  0.30626149  0.64702479  1
  H  H784  1  0.82858764  0.43568812  0.64327120  1
  H  H785  1  0.92740078  0.46263403  0.50678653  1
  C  C786  1  0.90734559  0.35606832  0.76273213  1
  C  C787  1  0.92692158  0.38660448  0.82821302  1
  H  H788  1  0.97798442  0.47151882  0.61901275  1
  O  O789  1  0.79881083  0.37023557  0.56323124  1
  H  H790  1  0.87574661  0.48385321  0.77660936  1
  C  C791  1  0.82978037  0.34447689  0.64114945  1
  H  H792  1  0.89501641  0.37822714  0.53818122  1
  H  H793  1  0.95732366  0.38138656  0.88902624  1
  H  H794  1  0.80191169  0.43084795  0.90478390  1
  C  C795  1  0.86480430  0.37377384  0.70167608  1
  H  H796  1  0.97973717  0.48562661  0.76989240  1
  H  H797  1  0.90228267  0.46684316  0.95275310  1
  C  C798  1  0.85927067  0.47876101  0.97372612  1
  C  C799  1  0.85995593  0.65428068  0.30276062  1
  C  C800  1  0.84018291  0.67102903  0.22033588  1
  C  C801  1  0.87295642  0.66014387  0.13891776  1
  C  C802  1  0.92225913  0.63455940  0.15333573  1
  H  H803  1  0.83429057  0.65354070  0.36750721  1
  H  H804  1  0.79765640  0.68597248  0.21272333  1
  N  N805  1  0.90564921  0.62896063  0.31718860  1
  C  C806  1  0.93755808  0.62031510  0.24295539  1
  Cu  Cu807  1  0.90716232  0.58692264  0.43368128  1
  H  H808  1  0.94821293  0.62373225  0.09200983  1
  N  N809  1  0.89229486  0.53695379  0.33510648  1
  H  H810  1  0.90366181  0.54520830  0.26719455  1
  C  C811  1  0.85683868  0.66892541  0.04399278  1
  O  O812  1  0.81466420  0.69386298  0.03472065  1
  C  C813  1  0.82007877  0.52779444  0.07228581  1
  H  H814  1  0.83329921  0.55622171  0.11602517  1
  C  C815  1  0.84060738  0.52204229  0.33235579  1
  C  C816  1  0.76248846  0.51283873  0.05530668  1
  C  C817  1  0.75645314  0.68105372  0.45126242  1
  C  C818  1  0.94753768  0.73717533  0.03104082  1
  H  H819  1  0.97377981  0.59922156  0.25447895  1
  O  O820  1  0.99328643  0.51476077  0.24712840  1
  Cu  Cu821  1  0.97266628  0.51516461  0.37784936  1
  N  N822  1  0.86777539  0.51345411  0.02863957  1
  C  C823  1  0.80554978  0.70316122  0.48775074  1
  H  H824  1  0.76459258  0.60897480  0.21983162  1
  H  H825  1  0.80973067  0.73668627  0.45914721  1
  C  C826  1  0.78651730  0.50382580  0.32463869  1
  C  C827  1  0.97935713  0.70709606  0.00861477  1
  N  N828  1  0.75206758  0.60451479  0.09045457  1
  H  H829  1  0.75666624  0.50335410  0.38958945  1
  O  O830  1  0.98755762  0.59096322  0.42567000  1
  H  H831  1  0.99438456  0.65528142  0.39498816  1
  C  C832  1  0.94145674  0.81679911  0.37883964  1
  C  C833  1  0.76888098  0.85328166  0.20441719  1
  O  O834  1  0.75391322  0.90401644  0.07779400  1
  C  C835  1  0.79310208  0.99614807  0.23116082  1
  C  C836  1  0.77213253  0.80780184  0.34219226  1
  H  H837  1  0.79073698  0.89674938  0.36083535  1
  H  H838  1  0.94896864  0.93426947  0.01809767  1
  C  C839  1  0.92193459  0.99905027  0.03850839  1
  H  H840  1  0.79551874  0.79520716  0.40158290  1
  C  C841  1  0.88219794  0.97168980  0.29449527  1
  O  O842  1  0.91885167  0.78616333  0.41362580  1
  H  H843  1  0.85064072  0.83744317  0.27400926  1
  H  H844  1  0.95810699  0.83629346  0.44108637  1
  N  N845  1  0.86134450  0.93427404  0.33586280  1
  C  C846  1  0.76961311  0.95721417  0.27270692  1
  H  H847  1  0.81460933  0.95439301  0.06532780  1
  C  C848  1  0.94876419  0.83575378  0.28580726  1
  N  N849  1  0.93291164  0.81736364  0.20940557  1
  C  C850  1  0.99830232  0.97596232  0.43263592  1
  Cu  Cu851  1  0.89482797  0.76440816  0.18177724  1
  Cu  Cu852  1  0.82203896  0.76168111  0.03095462  1
  H  H853  1  0.96277222  0.86947438  0.27398485  1
  C  C854  1  0.79631551  0.87481412  0.12187485  1
  O  O855  1  0.84534740  0.87606919  0.09694542  1
  C  C856  1  0.80391126  0.92832132  0.32424601  1
  Cu  Cu857  1  0.93734555  0.82993207  0.08267767  1
  N  N858  1  0.91154283  0.77061667  0.05196919  1
  C  C859  1  0.80297924  0.83332528  0.27299668  1
  H  H860  1  0.92895990  0.96927208  0.31120604  1
  C  C861  1  0.77884609  0.93716674  0.02056376  1
  H  H862  1  0.83577603  0.98779966  0.47425979  1
  C  C863  1  0.86118973  0.65385281  0.87203549  1
  H  H864  1  0.87997616  0.62804020  0.82417317  1
  H  H865  1  0.86703222  0.61875283  0.62356873  1
  C  C866  1  0.83962496  0.63769951  0.57368575  1
  H  H867  1  0.86729498  0.54777249  0.82102646  1
  C  C868  1  0.91356979  0.55203825  0.79691669  1
  H  H869  1  0.90085439  0.71872550  0.64248955  1
  C  C870  1  0.92402444  0.54882965  0.69885721  1
  H  H871  1  0.94300339  0.55960844  0.93867311  1
  C  C872  1  0.95459598  0.55951376  0.86365064  1
  C  C873  1  0.90362977  0.70064409  0.57603434  1
  C  C874  1  0.84574363  0.68281529  0.54625329  1
  H  H875  1  0.79884317  0.64228846  0.73265863  1
  O  O876  1  0.95517343  0.66674176  0.59647134  1
  C  C877  1  0.92205740  0.54776151  0.61436023  1
  N  N878  1  0.78298096  0.58060150  0.77986966  1
  H  H879  1  0.95269569  0.70873873  0.76972793  1
  H  H880  1  0.81434555  0.64592072  0.88439143  1
  C  C881  1  0.86603130  0.70111285  0.83505801  1
  C  C882  1  0.77115080  0.56821898  0.56579721  1
  C  C883  1  0.78929048  0.61623499  0.53898180  1
  H  H884  1  0.80979943  0.54382555  0.55462605  1
  C  C885  1  0.91188668  0.72273874  0.78928868  1
  O  O886  1  0.92030217  0.54498365  0.52509359  1
  C  C887  1  0.76309295  0.62142757  0.75935973  1
  H  H888  1  0.77408176  0.51832394  0.82059412  1
  C  C889  1  0.81997328  0.73100313  0.84879093  1
  H  H890  1  0.77747257  0.72394649  0.88410050  1
  O  O891  1  0.88135886  0.64645983  0.97669876  1
  H  H892  1  0.91994251  0.72604852  0.52924564  1
  H  H893  1  0.76210470  0.56737147  0.64299231  1
  C  C894  1  0.75844690  0.96812414  0.57840364  1
  C  C895  1  0.79849186  0.81112132  0.81870742  1
  C  C896  1  0.76882436  0.84601412  0.82576374  1
  O  O897  1  0.83638738  0.97896234  0.75940003  1
  C  C898  1  0.92341494  0.96137708  0.98819278  1
  O  O899  1  0.92418552  0.83186267  0.69090396  1
  C  C900  1  0.89121321  0.95670437  0.90275201  1
  N  N901  1  0.94246661  0.84602839  0.93931382  1
  H  H902  1  0.78490472  0.87811313  0.79147603  1
  H  H903  1  0.95542017  0.91009204  0.54860777  1
  H  H904  1  0.94388203  0.92556118  0.66838551  1
  H  H905  1  0.80620692  0.91563948  0.97734423  1
  C  C906  1  0.97420130  0.90858135  0.61974102  1
  C  C907  1  0.98368883  0.86108586  0.65127838  1
  N  N908  1  0.78941754  0.82472011  0.61371810  1
  H  H909  1  0.98305580  0.83644760  0.91546502  1
  H  H910  1  0.87563419  0.91095464  0.78265470  1
  C  C911  1  0.78032332  0.78187528  0.61896640  1
  C  C912  1  0.93263955  0.79498772  0.72375443  1
  C  C913  1  0.91726253  0.87999381  0.89974550  1
  C  C914  1  0.89468274  0.76583414  0.77343515  1
  H  H915  1  0.82572400  0.76637339  0.64582658  1
  C  C916  1  0.83220293  0.77296787  0.81006701  1
  H  H917  1  0.97865597  0.78366596  0.71182093  1
  Cu  Cu918  1  0.89142716  0.79350076  0.93182722  1
  C  C919  1  0.89052651  0.91417093  0.85602505  1
  C  C920  1  0.86003872  0.99117321  0.85647651  1
  H  H921  1  0.76222433  0.98095872  0.90293163  1
  H  H922  1  0.75903982  0.88278778  0.58502526  1
  H  H923  1  0.98131130  0.97176486  0.50782466  1
