# generated using pymatgen
data_Cu3H26C41NO15
_symmetry_space_group_name_H-M   'P 1'
_cell_length_a   27.40993229
_cell_length_b   22.89510879
_cell_length_c   28.04759471
_cell_angle_alpha   90.00000000
_cell_angle_beta   90.00000000
_cell_angle_gamma   90.00000000
_symmetry_Int_Tables_number   1
_chemical_formula_structural   Cu3H26C41NO15
_chemical_formula_sum   'Cu48 H416 C656 N16 O240'
_cell_volume   17601.36291507
_cell_formula_units_Z   16
loop_
 _symmetry_equiv_pos_site_id
 _symmetry_equiv_pos_as_xyz
  1  'x, y, z'
loop_
 _atom_site_type_symbol
 _atom_site_label
 _atom_site_symmetry_multiplicity
 _atom_site_fract_x
 _atom_site_fract_y
 _atom_site_fract_z
 _atom_site_occupancy
  C  C0  1  0.09195808  0.13607889  0.02373495  1
  C  C1  1  0.11589094  0.11100986  0.06527559  1
  H  H2  1  0.09877405  0.11278647  0.10056284  1
  C  C3  1  0.04261767  0.16284364  0.03384860  1
  C  C4  1  0.16436537  0.09059768  0.05460661  1
  H  H5  1  0.03567059  0.16182762  0.07307341  1
  H  H6  1  0.20484188  0.17254363  0.07762331  1
  C  C7  1  0.21524275  0.18321346  0.15304184  1
  C  C8  1  0.19315891  0.19944304  0.10841801  1
  O  O9  1  0.02504182  0.22041188  0.01224864  1
  C  C10  1  0.20705565  0.21131732  0.19578344  1
  H  H11  1  0.01172604  0.13757802  0.01696312  1
  H  H12  1  0.18365475  0.06102789  0.07910792  1
  H  H13  1  0.08236468  0.04213569  0.01146357  1
  C  C14  1  0.04367837  0.02781052  0.00879349  1
  H  H15  1  0.22233603  0.19908066  0.23154455  1
  C  C16  1  0.02569331  0.03804254  0.18325279  1
  C  C17  1  0.03370808  0.02867219  0.09561807  1
  C  C18  1  0.24715780  0.13145751  0.15379136  1
  C  C19  1  0.16366361  0.24775240  0.10426134  1
  C  C20  1  0.18500245  0.09210957  0.00838584  1
  O  O21  1  0.01197660  0.03702376  0.05254710  1
  C  C22  1  0.00816728  0.04535216  0.13807851  1
  C  C23  1  0.07973988  0.00616198  0.10508864  1
  H  H24  1  0.08546517  0.00451466  0.22767545  1
  C  C25  1  0.07123199  0.01356251  0.19236743  1
  H  H26  1  0.22063820  0.07469153  0.00635435  1
  O  O27  1  0.25115870  0.09820714  0.11774260  1
  O  O28  1  0.26809266  0.12323881  0.19333564  1
  Cu  Cu29  1  0.31569667  0.06443701  0.09670321  1
  O  O30  1  0.30926241  0.09605450  0.03815070  1
  Cu  Cu31  1  0.43438143  0.15305915  0.02755935  1
  C  C32  1  0.33119687  0.13786106  0.02175107  1
  O  O33  1  0.36787918  0.16036474  0.04179209  1
  O  O34  1  0.40845752  0.03367112  0.16459967  1
  O  O35  1  0.32912712  0.02594397  0.15057534  1
  C  C36  1  0.37228467  0.00470418  0.16126485  1
  H  H37  1  0.41929074  0.10605364  0.24044750  1
  O  O38  1  0.45739950  0.01345937  0.03976709  1
  C  C39  1  0.42811530  0.02918337  0.01031487  1
  Cu  Cu40  1  0.25305015  0.09340014  0.24873411  1
  C  C41  1  0.12584057  0.02570143  0.46024875  1
  O  O42  1  0.05907029  0.18055939  0.42894593  1
  C  C43  1  0.07138867  0.20560674  0.47010187  1
  H  H44  1  0.03684834  0.18136826  0.36067945  1
  H  H45  1  0.17129477  0.13131032  0.42588229  1
  C  C46  1  0.19148314  0.17420814  0.42428059  1
  C  C47  1  0.02939989  0.21410911  0.39053781  1
  O  O48  1  0.22533660  0.06449916  0.30318200  1
  H  H49  1  0.08554253  0.02757865  0.47038982  1
  C  C50  1  0.21553121  0.01042944  0.30687058  1
  C  C51  1  0.21142749  0.19805821  0.38158977  1
  C  C52  1  0.19589644  0.21181308  0.46387566  1
  H  H53  1  0.11483145  0.13191086  0.49678334  1
  H  H54  1  0.12294913  0.00021017  0.38339434  1
  C  C55  1  0.22076920  0.00919953  0.45737409  1
  C  C56  1  0.14542605  0.01055340  0.41531355  1
  H  H57  1  0.20619876  0.17298081  0.34853361  1
  C  C58  1  0.23979461  0.24849292  0.37844877  1
  C  C59  1  0.45080566  0.09451036  0.26610515  1
  C  C60  1  0.49590870  0.11955328  0.25968700  1
  C  C61  1  0.35052523  0.18094763  0.47178550  1
  C  C62  1  0.34836370  0.24130123  0.45958621  1
  O  O63  1  0.33252834  0.11773180  0.32661225  1
  O  O64  1  0.31475785  0.08560216  0.45872637  1
  H  H65  1  0.47730288  0.01480720  0.36360290  1
  H  H66  1  0.38866114  0.19967624  0.37429459  1
  H  H67  1  0.31523393  0.14987748  0.40970846  1
  C  C68  1  0.32784860  0.13646921  0.44543400  1
  C  C69  1  0.33757325  0.22174998  0.31547544  1
  C  C70  1  0.40154685  0.01803369  0.30654143  1
  C  C71  1  0.31753562  0.16080822  0.30733183  1
  H  H72  1  0.30695965  0.03741722  0.32187441  1
  C  C73  1  0.48268250  0.04252782  0.33155406  1
  H  H74  1  0.37047061  0.02672337  0.28293644  1
  C  C75  1  0.44333108  0.05359077  0.30245260  1
  O  O76  1  0.28354796  0.15891264  0.27578927  1
  C  C77  1  0.37428246  0.23417515  0.34944598  1
  Cu  Cu78  1  0.12641627  0.05147187  0.57336150  1
  O  O79  1  0.16526507  0.11930230  0.56928130  1
  C  C80  1  0.14616515  0.16743306  0.58018072  1
  O  O81  1  0.15736451  0.19543548  0.61745292  1
  C  C82  1  0.11452054  0.20169362  0.54744344  1
  C  C83  1  0.21436505  0.04140561  0.71732313  1
  C  C84  1  0.16459621  0.03487586  0.71285409  1
  O  O85  1  0.15406842  0.02399677  0.63214281  1
  O  O86  1  0.08729216  0.03893137  0.67495987  1
  C  C87  1  0.13441048  0.03517677  0.67068016  1
  H  H88  1  0.23527175  0.04730622  0.68440501  1
  N  N89  1  0.14879693  0.03368950  0.50149146  1
  Cu  Cu90  1  0.21495443  0.22857268  0.61465187  1
  H  H91  1  0.18348254  0.20456624  0.50099013  1
  H  H92  1  0.21297575  0.03067500  0.53583069  1
  C  C93  1  0.10106741  0.17669852  0.50389445  1
  C  C94  1  0.19586067  0.02328266  0.50031180  1
  H  H95  1  0.47491729  0.24740781  0.55122562  1
  O  O96  1  0.27956658  0.19918916  0.60793663  1
  C  C97  1  0.28120812  0.14971069  0.62714700  1
  O  O98  1  0.27458238  0.14531446  0.67098008  1
  H  H99  1  0.28263970  0.03391601  0.65026928  1
  H  H100  1  0.29522114  0.15690119  0.53080832  1
  C  C101  1  0.29505819  0.11173441  0.54558925  1
  C  C102  1  0.28981913  0.10012172  0.59516727  1
  C  C103  1  0.30768933  0.06687988  0.51522043  1
  C  C104  1  0.29071788  0.04290581  0.61253452  1
  H  H105  1  0.37364344  0.12022682  0.53183001  1
  C  C106  1  0.45893999  0.06378699  0.66267771  1
  Cu  Cu107  1  0.32808567  0.13792861  0.71323795  1
  H  H108  1  0.42744079  0.15458695  0.59232809  1
  C  C109  1  0.37077809  0.16664647  0.51710505  1
  C  C110  1  0.39031906  0.21081882  0.54555709  1
  C  C111  1  0.40868786  0.19403088  0.59622111  1
  O  O112  1  0.31472293  0.05987952  0.72766934  1
  H  H113  1  0.44360155  0.06167896  0.62708212  1
  H  H114  1  0.37480699  0.18781674  0.61664206  1
  C  C115  1  0.43623958  0.03408785  0.70198480  1
  O  O116  1  0.43541615  0.23061367  0.63455022  1
  C  C117  1  0.45890926  0.04415370  0.74632559  1
  C  C118  1  0.30847790  0.01017491  0.53234860  1
  C  C119  1  0.49947720  0.10097003  0.66804381  1
  H  H120  1  0.40131186  0.01006301  0.70062691  1
  C  C121  1  0.02696394  0.04544493  0.95810774  1
  O  O122  1  0.13053641  0.02558832  0.84216343  1
  H  H123  1  0.09942029  0.03744470  0.92605243  1
  C  C124  1  0.17858511  0.12150399  0.91814413  1
  H  H125  1  0.20344106  0.08405446  0.91266828  1
  H  H126  1  0.14724128  0.12003157  0.89237010  1
  O  O127  1  0.20587274  0.17600951  0.90216243  1
  C  C128  1  0.21002472  0.03476651  0.80298311  1
  H  H129  1  0.08861065  0.16015484  0.94972277  1
  C  C130  1  0.15837639  0.11574843  0.96889432  1
  H  H131  1  0.22833832  0.03215385  0.83769692  1
  H  H132  1  0.08053642  0.08299569  0.80887266  1
  C  C133  1  0.15832511  0.02914731  0.80322647  1
  C  C134  1  0.13942276  0.02824426  0.75651155  1
  C  C135  1  0.23785469  0.04195498  0.76238562  1
  C  C136  1  0.06127990  0.04535092  0.92027803  1
  C  C137  1  0.11095468  0.13944490  0.97693618  1
  C  C138  1  0.07536923  0.04398812  0.83139692  1
  C  C139  1  0.04096065  0.04997001  0.87409049  1
  H  H140  1  0.10065602  0.02483805  0.75307678  1
  C  C141  1  0.24704542  0.19236978  0.92597260  1
  H  H142  1  0.05769706  0.01176894  0.80731327  1
  C  C143  1  0.28689352  0.00420618  0.90599122  1
  H  H144  1  0.36351088  0.06535904  0.94611139  1
  O  O145  1  0.44004347  0.01235699  0.83742598  1
  O  O146  1  0.33895567  0.17438518  0.82111292  1
  H  H147  1  0.46248502  0.15809769  0.75332554  1
  C  C148  1  0.33237235  0.22947573  0.97737046  1
  C  C149  1  0.47651773  0.24116037  0.86853802  1
  O  O150  1  0.38315039  0.15022571  0.75613139  1
  Cu  Cu151  1  0.31011032  0.11298472  0.85199953  1
  O  O152  1  0.42761207  0.07975126  0.99277507  1
  H  H153  1  0.25635061  0.11117725  0.96816540  1
  C  C154  1  0.42871865  0.22881140  0.85273742  1
  C  C155  1  0.35348696  0.02218584  0.96134064  1
  H  H156  1  0.39496344  0.23775449  0.87240695  1
  H  H157  1  0.39118547  0.02273135  0.78614461  1
  C  C158  1  0.29048403  0.05103028  0.76449094  1
  C  C159  1  0.42560374  0.19798634  0.81069390  1
  C  C160  1  0.30985480  0.17565726  0.98492690  1
  C  C161  1  0.37870368  0.17329146  0.79647266  1
  C  C162  1  0.27032617  0.15562089  0.95929290  1
  C  C163  1  0.46804022  0.18695751  0.78469336  1
  O  O164  1  0.28316415  0.05821809  0.89509584  1
  O  O165  1  0.31132746  0.05269086  0.80527476  1
  C  C166  1  0.43093106  0.01022809  0.78504925  1
  C  C167  1  0.26922031  0.24701736  0.91698203  1
  H  H168  1  0.36167296  0.24515290  0.99913331  1
  C  C169  1  0.15373325  0.27435735  0.14920989  1
  H  H170  1  0.12737438  0.30965590  0.14988687  1
  H  H171  1  0.07214361  0.30174245  0.08733661  1
  C  C172  1  0.08784698  0.41933823  0.10667688  1
  C  C173  1  0.11972291  0.37889306  0.08418363  1
  C  C174  1  0.10418083  0.31768202  0.06761449  1
  C  C175  1  0.16872772  0.39560444  0.07392680  1
  H  H176  1  0.05009216  0.40955021  0.11733390  1
  H  H177  1  0.09276082  0.31563177  0.02881191  1
  H  H178  1  0.19462851  0.36269437  0.06136401  1
  C  C179  1  0.18673409  0.45427245  0.08145209  1
  C  C180  1  0.10589297  0.47547072  0.11488107  1
  C  C181  1  0.17465319  0.25822004  0.19194987  1
  O  O182  1  0.14192655  0.26562198  0.06410170  1
  H  H183  1  0.22205477  0.46933626  0.06739074  1
  H  H184  1  0.00614355  0.41337329  0.04745141  1
  C  C185  1  0.15421587  0.49439797  0.10345894  1
  H  H186  1  0.00943324  0.32561747  0.10469495  1
  O  O187  1  0.13981164  0.33702577  0.23991056  1
  C  C188  1  0.16289581  0.29420178  0.23500366  1
  H  H189  1  0.27572119  0.26225367  0.10698362  1
  H  H190  1  0.26280459  0.30451883  0.02313822  1
  C  C191  1  0.27537840  0.33231124  0.05323708  1
  H  H192  1  0.29756478  0.33687271  0.17172571  1
  C  C193  1  0.28425331  0.39114888  0.04490580  1
  C  C194  1  0.28394222  0.30885637  0.09840831  1
  N  N195  1  0.29809671  0.42891284  0.07844609  1
  C  C196  1  0.29648110  0.34915715  0.13291588  1
  C  C197  1  0.30667121  0.40867292  0.12025160  1
  C  C198  1  0.39494006  0.44719621  0.19290185  1
  C  C199  1  0.35320671  0.46149899  0.22021893  1
  H  H200  1  0.31948043  0.44255987  0.14439699  1
  H  H201  1  0.42065768  0.41255880  0.20387129  1
  H  H202  1  0.48834413  0.47934351  0.13898082  1
  H  H203  1  0.45194488  0.43514133  0.10013813  1
  C  C204  1  0.45239475  0.47544029  0.11914262  1
  C  C205  1  0.40492631  0.47898635  0.15120645  1
  H  H206  1  0.27764321  0.41264180  0.01073136  1
  H  H207  1  0.00319316  0.40256271  0.32600262  1
  H  H208  1  0.01050675  0.46291046  0.37977326  1
  H  H209  1  0.07738622  0.41394829  0.26142662  1
  C  C210  1  0.08535753  0.46111467  0.26570975  1
  H  H211  1  0.15844640  0.44776361  0.29335855  1
  C  C212  1  0.00906052  0.31161712  0.35281777  1
  C  C213  1  0.12927408  0.47951910  0.28455935  1
  C  C214  1  0.02721327  0.36788783  0.34286700  1
  C  C215  1  0.04400456  0.27471561  0.37416026  1
  C  C216  1  0.07195905  0.38858357  0.35718033  1
  H  H217  1  0.07742390  0.43307321  0.44212040  1
  H  H218  1  0.17589349  0.33876711  0.40837820  1
  C  C219  1  0.15098814  0.37513686  0.39834062  1
  C  C220  1  0.10497121  0.35048013  0.38232646  1
  C  C221  1  0.09322138  0.29261645  0.38603945  1
  H  H222  1  0.11903930  0.26064564  0.40205983  1
  O  O223  1  0.16831859  0.42448244  0.40632689  1
  H  H224  1  0.18591901  0.31022077  0.29725251  1
  H  H225  1  0.08087077  0.43338771  0.35122687  1
  O  O226  1  0.19530773  0.27781609  0.27633326  1
  H  H227  1  0.02705572  0.28299116  0.46393173  1
  C  C228  1  0.08962699  0.47776118  0.43019736  1
  C  C229  1  0.05568184  0.26081142  0.48375418  1
  N  N230  1  0.21847523  0.26292413  0.46048333  1
  H  H231  1  0.21826648  0.29121201  0.49188479  1
  C  C232  1  0.13453213  0.48257388  0.41098057  1
  C  C233  1  0.23786930  0.28318505  0.42081983  1
  H  H234  1  0.26209494  0.25851360  0.34748452  1
  H  H235  1  0.33130476  0.25473052  0.42531452  1
  O  O236  1  0.34626575  0.42974253  0.44341427  1
  Cu  Cu237  1  0.41513443  0.42181147  0.45076908  1
  H  H238  1  0.25302005  0.32666392  0.42625458  1
  O  O239  1  0.42539986  0.36884477  0.39640715  1
  H  H240  1  0.29259265  0.25206939  0.25814093  1
  C  C241  1  0.31807277  0.26357287  0.28797743  1
  C  C242  1  0.42566445  0.31429211  0.38826433  1
  C  C243  1  0.36690400  0.33572329  0.32662227  1
  C  C244  1  0.38812398  0.29145108  0.35508863  1
  H  H245  1  0.36428797  0.32926980  0.47428136  1
  O  O246  1  0.47873693  0.41280054  0.47474002  1
  H  H247  1  0.38019755  0.40532234  0.27444643  1
  H  H248  1  0.37696307  0.38106398  0.32949387  1
  O  O249  1  0.45236020  0.27958331  0.41015611  1
  C  C250  1  0.32657487  0.47737600  0.42140807  1
  O  O251  1  0.32985789  0.48117906  0.37886734  1
  H  H252  1  0.32517228  0.45097452  0.29478821  1
  C  C253  1  0.33160250  0.32460170  0.29198716  1
  O  O254  1  0.31755903  0.36560630  0.26160936  1
  C  C255  1  0.34382124  0.42428885  0.26513465  1
  C  C256  1  0.36689519  0.28577091  0.48847035  1
  O  O257  1  0.06250608  0.35734851  0.58154328  1
  C  C258  1  0.14911663  0.42736175  0.56130451  1
  C  C259  1  0.15801515  0.40799005  0.64574512  1
  C  C260  1  0.16477627  0.39107200  0.59957882  1
  C  C261  1  0.19411002  0.33713196  0.58545423  1
  H  H262  1  0.16971361  0.38444294  0.67776065  1
  O  O263  1  0.20828582  0.30641005  0.62105853  1
  O  O264  1  0.19920398  0.32578767  0.54362281  1
  C  C265  1  0.05347080  0.34519734  0.53753706  1
  Cu  Cu266  1  0.04235401  0.42068883  0.61330305  1
  C  C267  1  0.13615863  0.46239730  0.65310018  1
  C  C268  1  0.07206035  0.28746902  0.52535141  1
  H  H269  1  0.15748487  0.41451192  0.52509743  1
  O  O270  1  0.13946556  0.45508645  0.73409231  1
  H  H271  1  0.11300294  0.28235471  0.59219543  1
  O  O272  1  0.00888066  0.48188156  0.63013746  1
  C  C273  1  0.10084293  0.25877596  0.55872645  1
  C  C274  1  0.12352897  0.48034785  0.56849289  1
  C  C275  1  0.13008890  0.48780164  0.70235983  1
  O  O276  1  0.02471161  0.37487867  0.51261055  1
  C  C277  1  0.11835035  0.49759773  0.61693880  1
  H  H278  1  0.40125459  0.30052058  0.55805945  1
  H  H279  1  0.31502117  0.47244934  0.51794580  1
  H  H280  1  0.49013431  0.28518000  0.69716099  1
  C  C281  1  0.49423415  0.26742664  0.57850095  1
  C  C282  1  0.47640727  0.25779694  0.62565324  1
  C  C283  1  0.38827926  0.27041732  0.53277548  1
  C  C284  1  0.21614384  0.48811727  0.92535298  1
  H  H285  1  0.05729730  0.34978219  0.91910866  1
  C  C286  1  0.01069462  0.35762271  0.84016457  1
  H  H287  1  0.04861723  0.33847721  0.83729934  1
  H  H288  1  0.11700464  0.46685382  0.91756971  1
  C  C289  1  0.04129036  0.45682176  0.85300569  1
  H  H290  1  0.07846675  0.43964201  0.84134846  1
  O  O291  1  0.19918195  0.45361791  0.95261449  1
  C  C292  1  0.04998334  0.38530061  0.94367777  1
  C  C293  1  0.00766213  0.42123448  0.95040008  1
  N  N294  1  0.09258277  0.39444704  0.96007851  1
  C  C295  1  0.00116175  0.41975011  0.84929083  1
  C  C296  1  0.01559869  0.46972623  0.97873976  1
  H  H297  1  0.13610279  0.43685447  0.99895980  1
  C  C298  1  0.09729155  0.43782346  0.98953349  1
  C  C299  1  0.06201315  0.48049346  0.99880258  1
  N  N300  1  0.32586908  0.45607501  0.79590974  1
  O  O301  1  0.26585117  0.49554703  0.92405328  1
  C  C302  1  0.49111331  0.49739656  0.87793117  1
  H  H303  1  0.48916620  0.48682953  0.91623985  1
  Cu  Cu304  1  0.29991682  0.42828719  0.91287562  1
  H  H305  1  0.25171863  0.27443381  0.88889259  1
  C  C306  1  0.31069796  0.26457179  0.94201234  1
  O  O307  1  0.32210559  0.35368238  0.90544788  1
  H  H308  1  0.25851403  0.45442138  0.77093996  1
  C  C309  1  0.36433091  0.48201526  0.81474354  1
  O  O310  1  0.36430700  0.46455916  0.91537476  1
  O  O311  1  0.36626354  0.33599885  0.97015125  1
  C  C312  1  0.33124434  0.32372653  0.94036540  1
  O  O313  1  0.41817110  0.43139078  0.96748800  1
  C  C314  1  0.28617967  0.48788823  0.78481717  1
  C  C315  1  0.48390327  0.26883578  0.91673591  1
  H  H316  1  0.39318799  0.44801574  0.81908723  1
  Cu  Cu317  1  0.43020870  0.35640376  0.95200613  1
  O  O318  1  0.44498898  0.28301447  0.93755904  1
  C  C319  1  0.39402924  0.47313689  0.94969005  1
  C  C320  1  0.07156309  0.52322792  0.13611007  1
  O  O321  1  0.07805419  0.58478619  0.12157488  1
  C  C322  1  0.03937797  0.67748644  0.11273316  1
  H  H323  1  0.07159998  0.69175438  0.09297395  1
  C  C324  1  0.04091377  0.62044301  0.13256177  1
  H  H325  1  0.13081679  0.62730589  0.04932883  1
  C  C326  1  0.13629416  0.66235048  0.02479109  1
  H  H327  1  0.07820005  0.52559132  0.17647378  1
  C  C328  1  0.20986013  0.71579941  0.19401586  1
  C  C329  1  0.19914644  0.73216705  0.14731808  1
  H  H330  1  0.19537240  0.71902717  0.07430773  1
  H  H331  1  0.16515913  0.53773895  0.11460504  1
  C  C332  1  0.20348276  0.69557250  0.10874823  1
  C  C333  1  0.21403252  0.63460807  0.11102351  1
  C  C334  1  0.22135878  0.65682316  0.19749069  1
  C  C335  1  0.22098129  0.62155165  0.02377838  1
  O  O336  1  0.21991128  0.59659305  0.07603447  1
  C  C337  1  0.22314464  0.61808549  0.15772613  1
  H  H338  1  0.06542608  0.69836068  0.03285319  1
  C  C339  1  0.10179981  0.70641976  0.01723197  1
  C  C340  1  0.00346715  0.71632136  0.12572204  1
  C  C341  1  0.18460485  0.66730901  0.00610423  1
  H  H342  1  0.03241172  0.51298729  0.13447922  1
  H  H343  1  0.23202839  0.57269787  0.16508454  1
  H  H344  1  0.20613208  0.74609229  0.22597389  1
  H  H345  1  0.07220310  0.52304280  0.01523239  1
  C  C346  1  0.00167027  0.60556090  0.16295884  1
  H  H347  1  0.02911713  0.59860224  0.24943021  1
  C  C348  1  0.23834989  0.63974579  0.24554107  1
  H  H349  1  0.45188290  0.51258437  0.09129932  1
  H  H350  1  0.25709327  0.64019154  0.02433253  1
  H  H351  1  0.37850307  0.54964823  0.10304642  1
  H  H352  1  0.35922542  0.63768414  0.15750274  1
  C  C353  1  0.36258571  0.67761887  0.13576006  1
  C  C354  1  0.41014457  0.69523695  0.11984612  1
  O  O355  1  0.45228103  0.60028216  0.07764598  1
  C  C356  1  0.42104805  0.59284565  0.04042533  1
  H  H357  1  0.37528428  0.67139742  0.04956131  1
  C  C358  1  0.44889936  0.64711654  0.11998063  1
  H  H359  1  0.28465347  0.69126678  0.13429680  1
  C  C360  1  0.32097863  0.70742275  0.12360855  1
  H  H361  1  0.30339840  0.57316676  0.15879723  1
  C  C362  1  0.38530866  0.63299836  0.02736320  1
  H  H363  1  0.43662639  0.61759287  0.15056994  1
  H  H364  1  0.48682002  0.65932589  0.12291136  1
  C  C365  1  0.42256479  0.54315990  0.01044812  1
  H  H366  1  0.41046128  0.54596066  0.22513309  1
  C  C367  1  0.41365127  0.59258368  0.23580039  1
  C  C368  1  0.45852717  0.62185653  0.24206921  1
  H  H369  1  0.45038084  0.51172229  0.01725918  1
  C  C370  1  0.33014241  0.53529384  0.16555466  1
  C  C371  1  0.37247731  0.52403149  0.13701031  1
  H  H372  1  0.33349253  0.61683066  0.24218877  1
  C  C373  1  0.37269413  0.62504207  0.24709209  1
  H  H374  1  0.49546989  0.59954420  0.24048069  1
  H  H375  1  0.28334026  0.51164987  0.22931547  1
  C  C376  1  0.31729310  0.50265925  0.20689824  1
  C  C377  1  0.41606534  0.74901730  0.09525666  1
  O  O378  1  0.09352656  0.70194644  0.25572226  1
  C  C379  1  0.04862128  0.50478250  0.25653465  1
  H  H380  1  0.16147424  0.65497739  0.26154931  1
  H  H381  1  0.01704846  0.56734858  0.35369512  1
  C  C382  1  0.00964918  0.52076768  0.45589982  1
  H  H383  1  0.17613093  0.54973178  0.29479251  1
  C  C384  1  0.13843865  0.54037565  0.28443478  1
  C  C385  1  0.05713802  0.56464570  0.25870060  1
  C  C386  1  0.12151786  0.64745485  0.27552494  1
  C  C387  1  0.15171951  0.53660269  0.39764791  1
  C  C388  1  0.10493936  0.58457217  0.27049871  1
  H  H389  1  0.11965600  0.66110630  0.31435453  1
  H  H390  1  0.04482963  0.67176068  0.33385516  1
  C  C391  1  0.02641992  0.70773222  0.31321218  1
  H  H392  1  0.04860272  0.62031815  0.42547806  1
  C  C393  1  0.13972389  0.64465075  0.38905492  1
  C  C394  1  0.12162007  0.58511037  0.40475435  1
  O  O395  1  0.11268509  0.68526969  0.39416791  1
  O  O396  1  0.18300263  0.65035525  0.36898244  1
  C  C397  1  0.07360044  0.58164432  0.41924417  1
  C  C398  1  0.05792030  0.52655994  0.43589340  1
  H  H399  1  0.18841709  0.54177226  0.38476476  1
  C  C400  1  0.05241622  0.72577795  0.27244190  1
  Cu  Cu401  1  0.21693005  0.72018550  0.36564096  1
  O  O402  1  0.24929506  0.58978038  0.25178318  1
  O  O403  1  0.24586911  0.68072621  0.27790307  1
  Cu  Cu404  1  0.46279765  0.61908095  0.49708204  1
  C  C405  1  0.45760483  0.68106464  0.25612672  1
  O  O406  1  0.25188433  0.71855285  0.47766971  1
  C  C407  1  0.41217183  0.70778234  0.26552029  1
  C  C408  1  0.25844611  0.67583060  0.44896136  1
  C  C409  1  0.30548000  0.52438079  0.45443802  1
  C  C410  1  0.28917928  0.57654411  0.43375304  1
  H  H411  1  0.49210711  0.70341268  0.25898572  1
  Cu  Cu412  1  0.30265852  0.72740604  0.27617364  1
  N  N413  1  0.36938549  0.68161624  0.26069406  1
  O  O414  1  0.49154636  0.68306225  0.47291950  1
  C  C415  1  0.27149681  0.61765562  0.46666517  1
  H  H416  1  0.28648662  0.58303536  0.39507006  1
  O  O417  1  0.26331182  0.68438882  0.40498295  1
  C  C418  1  0.04452917  0.67324620  0.71175478  1
  C  C419  1  0.15344734  0.70654298  0.61459990  1
  C  C420  1  0.17576189  0.59531467  0.57032463  1
  H  H421  1  0.10432142  0.54072508  0.62303130  1
  C  C422  1  0.12766935  0.61834154  0.56947466  1
  H  H423  1  0.07585167  0.68658724  0.59093258  1
  C  C424  1  0.11639403  0.67357107  0.59160626  1
  H  H425  1  0.18434255  0.55426415  0.55334122  1
  C  C426  1  0.19914950  0.68046113  0.62169952  1
  C  C427  1  0.21117450  0.62769190  0.59781736  1
  C  C428  1  0.09635762  0.57564059  0.54095351  1
  H  H429  1  0.05679596  0.57462927  0.55137576  1
  O  O430  1  0.10752026  0.53818031  0.70857250  1
  O  O431  1  0.11025380  0.51364793  0.52967234  1
  O  O432  1  0.06197107  0.63286417  0.74090858  1
  C  C433  1  0.01911657  0.65525949  0.66626583  1
  H  H434  1  0.03255625  0.55927471  0.68293496  1
  O  O435  1  0.04465264  0.72380365  0.72002890  1
  Cu  Cu436  1  0.12575933  0.60172874  0.74435015  1
  C  C437  1  0.01788968  0.59548433  0.65743442  1
  H  H438  1  0.22731637  0.70710711  0.63927722  1
  H  H439  1  0.00904900  0.74333878  0.64850858  1
  H  H440  1  0.14531014  0.74942443  0.63271624  1
  C  C441  1  0.00467882  0.69872785  0.63476095  1
  H  H442  1  0.10264793  0.58397344  0.50116785  1
  H  H443  1  0.25739545  0.64518034  0.53696553  1
  C  C444  1  0.25991118  0.59873678  0.60879214  1
  H  H445  1  0.26055192  0.57796980  0.64398479  1
  H  H446  1  0.29094892  0.63202938  0.60589705  1
  O  O447  1  0.27414775  0.54258596  0.58273009  1
  C  C448  1  0.40367332  0.54604664  0.55502080  1
  H  H449  1  0.39752182  0.55979636  0.64430277  1
  C  C450  1  0.38157971  0.59949756  0.57720974  1
  C  C451  1  0.38161190  0.59610687  0.62699894  1
  C  C452  1  0.36147354  0.64642517  0.55228408  1
  C  C453  1  0.36358348  0.64091934  0.65691866  1
  H  H454  1  0.35666871  0.64952240  0.51323758  1
  C  C455  1  0.34653637  0.69279665  0.58084113  1
  C  C456  1  0.28105375  0.55277123  0.53663841  1
  O  O457  1  0.36201373  0.63712532  0.70392405  1
  C  C458  1  0.34817856  0.69010166  0.63093014  1
  H  H459  1  0.41645603  0.73548451  0.63865118  1
  H  H460  1  0.45070119  0.69387462  0.69788733  1
  H  H461  1  0.37375109  0.72479611  0.71679818  1
  C  C462  1  0.48151287  0.72154684  0.70811738  1
  H  H463  1  0.32953296  0.72610205  0.65076341  1
  H  H464  1  0.30737162  0.70294847  0.72071752  1
  C  C465  1  0.27003869  0.60784639  0.51609871  1
  C  C466  1  0.34722049  0.69446857  0.73165464  1
  O  O467  1  0.41372628  0.50346981  0.57716123  1
  C  C468  1  0.32745375  0.74714143  0.55967084  1
  O  O469  1  0.41800614  0.55710169  0.51214653  1
  C  C470  1  0.30148647  0.51355515  0.50272727  1
  C  C471  1  0.18222641  0.52275166  0.89607939  1
  C  C472  1  0.00612771  0.67648093  0.87893038  1
  O  O473  1  0.15268701  0.66259191  0.78105183  1
  O  O474  1  0.21801404  0.68322247  0.82422832  1
  C  C475  1  0.19914619  0.57355735  0.87136683  1
  C  C476  1  0.18229793  0.65629393  0.81639837  1
  H  H477  1  0.09062073  0.60902065  0.82123836  1
  C  C478  1  0.05813768  0.73268030  0.82066648  1
  C  C479  1  0.09831361  0.72201192  0.84942505  1
  H  H480  1  0.12249888  0.68890145  0.91865270  1
  C  C481  1  0.09173937  0.69291963  0.89470451  1
  C  C482  1  0.04713627  0.66548557  0.90945767  1
  C  C483  1  0.05575132  0.61779480  0.94695224  1
  H  H484  1  0.09364225  0.61883668  0.95883696  1
  C  C485  1  0.16644456  0.60022289  0.84226042  1
  C  C486  1  0.11718813  0.57984359  0.83939526  1
  H  H487  1  0.04912457  0.57503649  0.93031019  1
  C  C488  1  0.19859270  0.71452414  0.97686137  1
  H  H489  1  0.23303661  0.71928740  0.95959450  1
  C  C490  1  0.10156321  0.53288067  0.86489059  1
  C  C491  1  0.01281626  0.71026798  0.83851208  1
  H  H492  1  0.13394777  0.73971128  0.83815803  1
  H  H493  1  0.23825431  0.58426849  0.87263411  1
  O  O494  1  0.02863058  0.61461701  0.99548506  1
  H  H495  1  0.24720391  0.57397284  0.78894716  1
  O  O496  1  0.04611741  0.51216182  0.85920531  1
  C  C497  1  0.13237776  0.50429069  0.89506300  1
  H  H498  1  0.22498351  0.58304953  0.99965952  1
  C  C499  1  0.39170860  0.67656784  0.80464291  1
  C  C500  1  0.31425885  0.72686946  0.81789364  1
  O  O501  1  0.28471077  0.65485778  0.94220140  1
  C  C502  1  0.36472845  0.54088335  0.82819567  1
  C  C503  1  0.44688224  0.65463596  0.88024367  1
  C  C504  1  0.28117843  0.54725237  0.79690311  1
  H  H505  1  0.48159688  0.66635558  0.86084163  1
  H  H506  1  0.33114411  0.56762273  0.93055565  1
  C  C507  1  0.36401648  0.69502333  0.88519524  1
  O  O508  1  0.47899749  0.72690296  0.76498486  1
  C  C509  1  0.35726992  0.57285135  0.95947955  1
  H  H510  1  0.41825435  0.65611423  0.77957991  1
  C  C511  1  0.47750405  0.55401322  0.86193801  1
  C  C512  1  0.39169008  0.52976149  0.97231967  1
  C  C513  1  0.48518389  0.56068728  0.81328082  1
  H  H514  1  0.44713938  0.67655344  0.91764630  1
  C  C515  1  0.39942086  0.67274168  0.85400513  1
  C  C516  1  0.32078397  0.72319911  0.86817753  1
  H  H517  1  0.36992789  0.68742906  0.92238072  1
  H  H518  1  0.48096360  0.60620577  0.80018145  1
  C  C519  1  0.35456675  0.62235596  0.98866994  1
  O  O520  1  0.46211519  0.59309281  0.89479572  1
  C  C521  1  0.34862209  0.70091247  0.78584673  1
  H  H522  1  0.32442100  0.62316911  0.82545452  1
  C  C523  1  0.32254564  0.57456988  0.81879634  1
  H  H524  1  0.39541077  0.56337187  0.84657737  1
  C  C525  1  0.31532175  0.66473384  0.97468229  1
  H  H526  1  0.29884780  0.74760566  0.89171817  1
  O  O527  1  0.31024393  0.71299609  0.99522537  1
  O  O528  1  0.17055906  0.95725574  0.19196510  1
  O  O529  1  0.18534916  0.81016716  0.09379055  1
  O  O530  1  0.17787921  0.82893109  0.17052866  1
  Cu  Cu531  1  0.21351114  0.89480672  0.19384763  1
  C  C532  1  0.14850327  0.97377476  0.15262473  1
  O  O533  1  0.17170344  0.96964154  0.11609519  1
  O  O534  1  0.03761087  0.79230756  0.08273660  1
  H  H535  1  0.04920379  0.79261293  0.21405704  1
  H  H536  1  0.09076712  0.84287663  0.04115082  1
  C  C537  1  0.18390235  0.79532558  0.13427042  1
  H  H538  1  0.18442884  0.87007387  0.04984040  1
  H  H539  1  0.04165712  0.97892543  0.01522185  1
  H  H540  1  0.10524215  0.99206618  0.07725678  1
  C  C541  1  0.15838919  0.88801208  0.02175163  1
  C  C542  1  0.09750595  0.99801480  0.15165783  1
  C  C543  1  0.00310318  0.77826988  0.10530984  1
  C  C544  1  0.03110370  0.77343410  0.24679244  1
  C  C545  1  0.10861008  0.87434937  0.01557526  1
  H  H546  1  0.02432363  0.77285933  0.00446552  1
  O  O547  1  0.25925336  0.84284219  0.22532560  1
  H  H548  1  0.45307086  0.75986111  0.08524125  1
  C  C549  1  0.29794667  0.81764456  0.21004416  1
  H  H550  1  0.29896098  0.93229338  0.18694588  1
  H  H551  1  0.36799687  0.87328326  0.07870918  1
  H  H552  1  0.41076476  0.92559925  0.03582521  1
  C  C553  1  0.37503951  0.83625759  0.05454414  1
  C  C554  1  0.34094085  0.84988607  0.19289276  1
  C  C555  1  0.38437342  0.82286758  0.18482472  1
  C  C556  1  0.42860001  0.85319481  0.17014039  1
  C  C557  1  0.33460256  0.90932376  0.18365697  1
  C  C558  1  0.42016378  0.91580568  0.16445827  1
  O  O559  1  0.46506921  0.82454476  0.16877796  1
  C  C560  1  0.37585134  0.94048331  0.16971940  1
  H  H561  1  0.41099136  0.84221029  0.03518440  1
  H  H562  1  0.45198344  0.94416522  0.15534646  1
  C  C563  1  0.37160250  0.78068013  0.08393918  1
  O  O564  1  0.33847094  0.84854291  0.01281343  1
  H  H565  1  0.29145788  0.77064478  0.07246291  1
  H  H566  1  0.38748862  0.77717775  0.19539697  1
  O  O567  1  0.30365535  0.76407037  0.21519898  1
  C  C568  1  0.38136895  0.94005734  0.01276112  1
  C  C569  1  0.32448214  0.75633214  0.09148723  1
  H  H570  1  0.21561505  0.98327076  0.38234010  1
  H  H571  1  0.00931646  0.91819867  0.47067812  1
  O  O572  1  0.03727272  0.83935604  0.40840063  1
  C  C573  1  0.06617366  0.86453361  0.43907496  1
  H  H574  1  0.13376066  0.82520379  0.41993230  1
  C  C575  1  0.11691183  0.85486457  0.44462488  1
  H  H576  1  0.20463589  0.89710666  0.32917867  1
  C  C577  1  0.04895524  0.90566713  0.47291439  1
  O  O578  1  0.21921799  0.83511454  0.46113370  1
  O  O579  1  0.22539848  0.79353046  0.33985631  1
  C  C580  1  0.14296615  0.87801149  0.48273568  1
  C  C581  1  0.19548282  0.99763472  0.41432322  1
  C  C582  1  0.24266775  0.90900406  0.32609961  1
  O  O583  1  0.17256834  0.99631437  0.30659844  1
  C  C584  1  0.19375461  0.86398877  0.49077189  1
  H  H585  1  0.44468841  0.86126164  0.41686478  1
  H  H586  1  0.40561493  0.75190160  0.28224207  1
  C  C587  1  0.37507205  0.83422129  0.44454288  1
  H  H588  1  0.38233014  0.78851579  0.45102400  1
  O  O589  1  0.39340653  0.97049911  0.32732992  1
  H  H590  1  0.47252825  0.92376902  0.31761964  1
  C  C591  1  0.27002138  0.80651905  0.33632346  1
  N  N592  1  0.32834803  0.84809363  0.45234341  1
  C  C593  1  0.39823014  0.93534388  0.42166125  1
  C  C594  1  0.40816830  0.87526320  0.42749081  1
  H  H595  1  0.46185345  0.86876201  0.27083817  1
  H  H596  1  0.42431053  0.97026805  0.41113866  1
  O  O597  1  0.30280197  0.76746143  0.33102913  1
  H  H598  1  0.35622038  0.85619649  0.33714874  1
  C  C599  1  0.30326671  0.98957363  0.32183463  1
  Cu  Cu600  1  0.27468845  0.79369702  0.48294930  1
  C  C601  1  0.32816496  0.88986523  0.32861949  1
  H  H602  1  0.25823283  0.99490299  0.45868604  1
  H  H603  1  0.33401777  0.99378621  0.43062665  1
  C  C604  1  0.31622340  0.90233450  0.44321824  1
  C  C605  1  0.34908822  0.94807417  0.43073537  1
  C  C606  1  0.28061885  0.86876654  0.33325507  1
  C  C607  1  0.25487748  0.96612368  0.31881981  1
  H  H608  1  0.27572408  0.90749101  0.44374917  1
  C  C609  1  0.48530649  0.88347418  0.29935753  1
  C  C610  1  0.33944561  0.94930381  0.32545053  1
  H  H611  1  0.46552528  0.75178713  0.40574690  1
  O  O612  1  0.47667025  0.83456163  0.33874899  1
  H  H613  1  0.14590332  0.93071612  0.54869923  1
  C  C614  1  0.12225678  0.91441137  0.51906649  1
  C  C615  1  0.07427375  0.93169501  0.51029477  1
  O  O616  1  0.21016152  0.87427283  0.53289136  1
  O  O617  1  0.07854362  0.92850593  0.70817657  1
  H  H618  1  0.15527666  0.89201657  0.71960708  1
  C  C619  1  0.05039220  0.97431092  0.54472079  1
  Cu  Cu620  1  0.04337178  0.97897372  0.66176559  1
  O  O621  1  0.24863592  0.87065389  0.72399999  1
  O  O622  1  0.00880191  0.99050008  0.53829865  1
  O  O623  1  0.07705260  0.99357470  0.57768705  1
  H  H624  1  0.40718559  0.82436006  0.58097941  1
  C  C625  1  0.47487534  0.77644167  0.67750863  1
  C  C626  1  0.43558034  0.82355527  0.60799562  1
  Cu  Cu627  1  0.25793934  0.82990829  0.56551581  1
  O  O628  1  0.27115949  0.93049206  0.63762910  1
  C  C629  1  0.29120730  0.93858948  0.59621738  1
  O  O630  1  0.29502263  0.89869017  0.56653617  1
  Cu  Cu631  1  0.30391352  0.90140832  0.69285769  1
  O  O632  1  0.30611664  0.78116538  0.58726843  1
  H  H633  1  0.31511974  0.97585331  0.50661572  1
  O  O634  1  0.36166918  0.88746471  0.71998065  1
  H  H635  1  0.41845779  0.81055975  0.72500287  1
  H  H636  1  0.46129106  0.91307261  0.59222028  1
  C  C637  1  0.46568371  0.87267808  0.61580573  1
  C  C638  1  0.44023142  0.77569188  0.64007715  1
  C  C639  1  0.29758858  0.99769419  0.58031663  1
  O  O640  1  0.33081201  0.75834739  0.51551272  1
  C  C641  1  0.06927570  0.92329320  0.75342496  1
  N  N642  1  0.01179332  0.84409152  0.90028501  1
  H  H643  1  0.08793013  0.79078575  0.98391490  1
  C  C644  1  0.00908584  0.80653241  0.98057125  1
  H  H645  1  0.19512131  0.78407907  0.90133403  1
  C  C646  1  0.15146014  0.88526591  0.75807573  1
  C  C647  1  0.02664593  0.80575445  0.93220596  1
  O  O648  1  0.03099522  0.92904611  0.77192510  1
  C  C649  1  0.10922438  0.89274986  0.78294788  1
  C  C650  1  0.09771501  0.87368603  0.82765973  1
  H  H651  1  0.17884614  0.84631469  0.93902459  1
  C  C652  1  0.13712091  0.84846590  0.85395504  1
  C  C653  1  0.19128658  0.86591552  0.78572377  1
  C  C654  1  0.18349389  0.85045433  0.83309147  1
  H  H655  1  0.21463259  0.83703548  0.85736896  1
  H  H656  1  0.06213965  0.88092002  0.84171760  1
  O  O657  1  0.12508141  0.82858463  0.89788249  1
  H  H658  1  0.09484329  0.95986379  0.91706856  1
  C  C659  1  0.10812679  0.94095816  0.95013640  1
  C  C660  1  0.16705353  0.80013870  0.92781913  1
  C  C661  1  0.15692319  0.95279170  0.96343804  1
  H  H662  1  0.18308196  0.98082791  0.94258440  1
  H  H663  1  0.05319529  0.77996179  0.91289131  1
  C  C664  1  0.24086489  0.86313031  0.76764496  1
  H  H665  1  0.04605271  0.88517618  0.96894050  1
  C  C666  1  0.08331199  0.89872607  0.97710198  1
  H  H667  1  0.06003273  0.75575184  0.78615087  1
  C  C668  1  0.11461583  0.75657721  0.99088120  1
  C  C669  1  0.16253332  0.75696048  0.96867824  1
  N  N670  1  0.18308002  0.92710875  0.99760283  1
  C  C671  1  0.38469243  0.99608672  0.99375492  1
  O  O672  1  0.27610529  0.85972104  0.79788081  1
  C  C673  1  0.42011355  0.87546514  0.83533776  1
  H  H674  1  0.48338762  0.75005370  0.85753972  1
  H  H675  1  0.28487011  0.75577145  0.80324281  1
  C  C676  1  0.48387535  0.99022785  0.85258555  1
  C  C677  1  0.46370887  0.78396756  0.83431062  1
  H  H678  1  0.40593158  0.91699678  0.85023729  1
  C  C679  1  0.44726640  0.83204577  0.85899362  1
  H  H680  1  0.27922013  0.90684959  0.95142354  1
  O  O681  1  0.47539470  0.79381397  0.93447128  1
  O  O682  1  0.34756536  0.93541698  0.78596295  1
  Cu  Cu683  1  0.29750514  0.92477852  0.82716424  1
  C  C684  1  0.40869603  0.86176062  0.78758745  1
  O  O685  1  0.26406710  0.96649072  0.88127981  1
  H  H686  1  0.43329312  0.96258169  0.77893938  1
  C  C687  1  0.31227803  0.92936975  0.96261652  1
  C  C688  1  0.45805243  0.77247817  0.78522967  1
  C  C689  1  0.45492636  0.83762426  0.91325322  1
  H  H690  1  0.47758651  0.99381036  0.92890771  1
  O  O691  1  0.44388633  0.88186388  0.93260337  1
  C  C692  1  0.31727150  0.98447231  0.94239012  1
  C  C693  1  0.37180674  0.89909343  0.76317802  1
  C  C694  1  0.42786422  0.81425289  0.76308123  1
  C  C695  1  0.34346828  0.90276574  0.99668667  1
  H  H696  1  0.67096665  0.12099753  0.17914088  1
  H  H697  1  0.58863303  0.13058392  0.13483289  1
  H  H698  1  0.60971254  0.12865049  0.19340772  1
  C  C699  1  0.64618874  0.14636228  0.20285923  1
  O  O700  1  0.64607182  0.20600307  0.17799856  1
  H  H701  1  0.69594067  0.10348297  0.05573100  1
  C  C702  1  0.59165424  0.17215353  0.11713284  1
  C  C703  1  0.61922436  0.21716254  0.13773456  1
  C  C704  1  0.56294097  0.18087158  0.07668634  1
  C  C705  1  0.53297552  0.13493126  0.05722951  1
  O  O706  1  0.53140568  0.08468650  0.07586696  1
  Cu  Cu707  1  0.53001873  0.01510786  0.04350795  1
  C  C708  1  0.56311076  0.23563276  0.05104251  1
  C  C709  1  0.69633860  0.10374884  0.01611498  1
  H  H710  1  0.69648132  0.05690878  0.24595638  1
  O  O711  1  0.70455813  0.04190242  0.00511100  1
  O  O712  1  0.74533114  0.06507507  0.17178092  1
  H  H713  1  0.50305495  0.14762973  0.22981919  1
  H  H714  1  0.54141485  0.24691024  0.01855708  1
  O  O715  1  0.50514465  0.15079159  0.02151474  1
  H  H716  1  0.65753352  0.10651646  0.00472819  1
  O  O717  1  0.91811652  0.22407303  0.23543143  1
  C  C718  1  0.99086651  0.05507097  0.22326910  1
  C  C719  1  0.88117789  0.01798519  0.06341058  1
  O  O720  1  0.84450428  0.21819408  0.13167933  1
  H  H721  1  0.97097929  0.17254126  0.08281450  1
  O  O722  1  0.76201916  0.14649807  0.13730931  1
  C  C723  1  0.76811435  0.09044052  0.14181268  1
  H  H724  1  0.81776246  0.14252489  0.07574818  1
  C  C725  1  0.82995365  0.09781465  0.07873398  1
  C  C726  1  0.80864712  0.06040335  0.11257772  1
  C  C727  1  0.86775662  0.07544517  0.05090324  1
  O  O728  1  0.90660815  0.15956122  0.14372585  1
  Cu  Cu729  1  0.79895195  0.19326023  0.17819128  1
  C  C730  1  0.88586168  0.19852851  0.12043923  1
  C  C731  1  0.95748268  0.21125955  0.06349557  1
  Cu  Cu732  1  0.92280006  0.14897326  0.21032951  1
  H  H733  1  0.97076676  0.05734721  0.13596279  1
  O  O734  1  0.94887388  0.07702906  0.20584156  1
  C  C735  1  0.91287547  0.23147967  0.08278046  1
  O  O736  1  0.88741740  0.10298566  0.01220323  1
  C  C737  1  0.81815869  0.00315394  0.12317255  1
  C  C738  1  0.98322643  0.24035455  0.02799772  1
  H  H739  1  0.88407579  0.18772481  0.02699513  1
  O  O740  1  0.83776950  0.23074311  0.22590552  1
  C  C741  1  0.77837973  0.13896418  0.00575654  1
  H  H742  1  0.79068999  0.09395332  0.01106242  1
  H  H743  1  0.53021446  0.24501017  0.29721618  1
  C  C744  1  0.66278667  0.14286085  0.25504791  1
  C  C745  1  0.56405998  0.05995614  0.36200412  1
  C  C746  1  0.54073749  0.20635042  0.36829746  1
  C  C747  1  0.73148561  0.02786432  0.32856837  1
  H  H748  1  0.63681372  0.23035383  0.27988761  1
  C  C749  1  0.61065283  0.02619089  0.43116320  1
  C  C750  1  0.55060004  0.24409814  0.33001154  1
  N  N751  1  0.60261479  0.24826438  0.41883426  1
  C  C752  1  0.56757318  0.20867714  0.41085903  1
  C  C753  1  0.53584699  0.11133020  0.28890050  1
  H  H754  1  0.61479447  0.01323394  0.27802992  1
  H  H755  1  0.51218489  0.17222204  0.36549462  1
  H  H756  1  0.56177123  0.18288832  0.44496204  1
  C  C757  1  0.67466684  0.18153405  0.33489468  1
  C  C758  1  0.68724524  0.09192268  0.26995330  1
  C  C759  1  0.69804613  0.02423956  0.49111570  1
  Cu  Cu760  1  0.64221928  0.24056867  0.48479553  1
  O  O761  1  0.67785182  0.17875851  0.45821280  1
  C  C762  1  0.68090676  0.07347464  0.47025006  1
  O  O763  1  0.56243574  0.02513010  0.39583192  1
  C  C764  1  0.70421749  0.08301358  0.31686699  1
  H  H765  1  0.57148767  0.13444672  0.28380168  1
  H  H766  1  0.62373795  0.11637831  0.42759309  1
  C  C767  1  0.69564949  0.12833814  0.35012124  1
  C  C768  1  0.63775031  0.07530604  0.44124236  1
  C  C769  1  0.65716802  0.18825372  0.28890514  1
  H  H770  1  0.67067713  0.21402178  0.36486234  1
  C  C771  1  0.52821017  0.07157298  0.32613820  1
  C  C772  1  0.70121850  0.13498696  0.47818384  1
  H  H773  1  0.59863309  0.08633118  0.35918327  1
  H  H774  1  0.70712948  0.12325624  0.38798149  1
  H  H775  1  0.98980836  0.21326962  0.40126901  1
  H  H776  1  0.76001510  0.04172475  0.35155893  1
  O  O777  1  0.99791235  0.04812587  0.26384486  1
  O  O778  1  0.61694078  0.19132332  0.53432522  1
  H  H779  1  0.65152332  0.15747680  0.60958660  1
  C  C780  1  0.66185062  0.08633448  0.68702816  1
  C  C781  1  0.58554256  0.14942471  0.53403935  1
  C  C782  1  0.62563327  0.11801097  0.61089794  1
  C  C783  1  0.59077989  0.10735408  0.57574193  1
  C  C784  1  0.62692190  0.07850305  0.64828324  1
  O  O785  1  0.69160662  0.12771397  0.68557661  1
  C  C786  1  0.55989075  0.05918609  0.57797519  1
  O  O787  1  0.66058423  0.05210155  0.72290578  1
  H  H788  1  0.53913671  0.04370132  0.54635749  1
  C  C789  1  0.55447625  0.16052782  0.72529712  1
  H  H790  1  0.55054819  0.19478437  0.69833462  1
  C  C791  1  0.59339032  0.03155578  0.64913696  1
  C  C792  1  0.51866994  0.11000167  0.71422318  1
  H  H793  1  0.59370876  0.14249098  0.72895950  1
  C  C794  1  0.55917682  0.01647002  0.61486598  1
  H  H795  1  0.51206413  0.12626809  0.63663175  1
  H  H796  1  0.59685797  0.00127795  0.67984438  1
  H  H797  1  0.72811172  0.02485387  0.51758142  1
  O  O798  1  0.55591778  0.14180224  0.50406793  1
  O  O799  1  0.72897856  0.14147894  0.51055002  1
  Cu  Cu800  1  0.76146221  0.11759005  0.69119300  1
  C  C801  1  0.78309575  0.00311912  0.71259551  1
  H  H802  1  0.78177870  0.23072993  0.65306405  1
  O  O803  1  0.95544814  0.09885901  0.62606037  1
  O  O804  1  0.77855505  0.03910854  0.67919141  1
  O  O805  1  0.79682610  0.17387654  0.72273244  1
  C  C806  1  0.95398347  0.19715986  0.65807112  1
  C  C807  1  0.93709934  0.16840250  0.69880209  1
  H  H808  1  0.93081647  0.12054646  0.70079475  1
  Cu  Cu809  1  0.97943582  0.04068594  0.58506109  1
  C  C810  1  0.78443515  0.21898623  0.74527745  1
  C  C811  1  0.96077951  0.15438118  0.61793528  1
  C  C812  1  0.92538817  0.20405650  0.73728981  1
  O  O813  1  0.97650451  0.17438698  0.58149966  1
  H  H814  1  0.55226643  0.24676981  0.86375969  1
  Cu  Cu815  1  0.71158641  0.06331730  0.76381682  1
  H  H816  1  0.63786409  0.02067832  0.80708043  1
  O  O817  1  0.55559695  0.19403960  0.77385552  1
  C  C818  1  0.71538174  0.02390778  0.95915479  1
  H  H819  1  0.55873302  0.03933912  0.86011328  1
  H  H820  1  0.69401230  0.17252176  0.82778549  1
  N  N821  1  0.66229945  0.09872259  0.81421526  1
  C  C822  1  0.62801519  0.06123355  0.82671878  1
  H  H823  1  0.62875098  0.20502733  0.89298513  1
  C  C824  1  0.65809521  0.15082444  0.83501711  1
  C  C825  1  0.62454867  0.16630779  0.87023989  1
  H  H826  1  0.55534599  0.13360088  0.90150167  1
  C  C827  1  0.58562242  0.12665568  0.87740957  1
  C  C828  1  0.58716009  0.07167324  0.85660318  1
  C  C829  1  0.73433141  0.06459744  0.92623628  1
  C  C830  1  0.51885954  0.23045488  0.84458913  1
  C  C831  1  0.51509255  0.20233357  0.79908843  1
  H  H832  1  0.74619236  0.10918698  0.93459683  1
  C  C833  1  0.74048332  0.04673295  0.87976427  1
  H  H834  1  0.51850778  0.08658823  0.78875057  1
  C  C835  1  0.50212631  0.07738144  0.75372078  1
  C  C836  1  0.72946642  0.15523112  0.99917436  1
  C  C837  1  0.71621620  0.21308382  0.98699597  1
  H  H838  1  0.67656165  0.22550861  0.98623739  1
  C  C839  1  0.86698403  0.16235060  0.99858219  1
  C  C840  1  0.80213732  0.24190118  0.98911065  1
  O  O841  1  0.78627082  0.22376238  0.79097805  1
  C  C842  1  0.95637746  0.05898869  0.90568726  1
  C  C843  1  0.90296358  0.17423264  0.78181569  1
  C  C844  1  0.81401066  0.18292502  0.99590439  1
  H  H845  1  0.97875983  0.07183699  0.83047188  1
  O  O846  1  0.77271183  0.14009088  0.86227924  1
  C  C847  1  0.76083207  0.09128398  0.84598975  1
  O  O848  1  0.90915489  0.12274786  0.78589636  1
  O  O849  1  0.88128442  0.20465349  0.81431888  1
  Cu  Cu850  1  0.82387810  0.17473322  0.83611387  1
  H  H851  1  0.95574647  0.05171246  0.98366827  1
  H  H852  1  0.88352341  0.17401065  0.96327777  1
  H  H853  1  0.91829671  0.05711363  0.90009694  1
  C  C854  1  0.99015649  0.06465791  0.86669218  1
  C  C855  1  0.97673308  0.05013183  0.95226871  1
  O  O856  1  0.76335324  0.07953553  0.80274001  1
  O  O857  1  0.62218535  0.37259748  0.05247323  1
  C  C858  1  0.59358883  0.33514372  0.04242938  1
  O  O859  1  0.71967626  0.45787963  0.04179459  1
  H  H860  1  0.69944013  0.43023837  0.17229321  1
  C  C861  1  0.59067694  0.27737667  0.07245582  1
  C  C862  1  0.71411732  0.38627197  0.16935704  1
  H  H863  1  0.64297608  0.30657526  0.12566354  1
  C  C864  1  0.61975219  0.26923009  0.11350555  1
  C  C865  1  0.69861418  0.34817700  0.20515720  1
  O  O866  1  0.55928205  0.34143233  0.01236417  1
  C  C867  1  0.71841600  0.29110189  0.20636659  1
  H  H868  1  0.67574311  0.36637752  0.23476333  1
  H  H869  1  0.70607677  0.25418776  0.22988524  1
  C  C870  1  0.74905935  0.45309694  0.01162663  1
  C  C871  1  0.75011441  0.36575179  0.13720361  1
  H  H872  1  0.76318711  0.39358044  0.10741617  1
  N  N873  1  0.75585491  0.27226185  0.17944893  1
  C  C874  1  0.76784929  0.30857439  0.14333043  1
  H  H875  1  0.79768980  0.29060333  0.12202895  1
  H  H876  1  0.98265347  0.49157588  0.21401317  1
  C  C877  1  0.91661959  0.31162735  0.02625922  1
  H  H878  1  0.85784445  0.29712179  0.08097004  1
  Cu  Cu879  1  0.84216481  0.45975146  0.05201307  1
  C  C880  1  0.89137112  0.28106515  0.06353772  1
  C  C881  1  0.90122252  0.39731489  0.13006853  1
  O  O882  1  0.85222532  0.38306846  0.02788117  1
  N  N883  1  0.90533814  0.44978111  0.11054859  1
  C  C884  1  0.81680741  0.46132955  0.22946328  1
  O  O885  1  0.77520219  0.44920965  0.23265545  1
  H  H886  1  0.86681882  0.39366028  0.14785810  1
  C  C887  1  0.93564096  0.35077883  0.12855885  1
  H  H888  1  0.93114396  0.31166556  0.15160016  1
  C  C889  1  0.85531564  0.41161866  0.23174943  1
  C  C890  1  0.84185789  0.35508769  0.22947945  1
  H  H891  1  0.80354247  0.33817955  0.22633368  1
  C  C892  1  0.96011598  0.29108843  0.00784136  1
  C  C893  1  0.97856662  0.35751253  0.10213434  1
  O  O894  1  0.79192425  0.47827157  0.01056122  1
  H  H895  1  0.94235806  0.49328918  0.06134731  1
  C  C896  1  0.94545780  0.45527114  0.08408437  1
  C  C897  1  0.89324085  0.36423847  0.00569998  1
  C  C898  1  0.97851213  0.40954936  0.07411688  1
  H  H899  1  0.96018135  0.30597402  0.24598102  1
  C  C900  1  0.88284751  0.31692338  0.23534939  1
  C  C901  1  0.87873033  0.25369041  0.23498845  1
  C  C902  1  0.90048096  0.43588815  0.24084481  1
  H  H903  1  0.90630033  0.48506938  0.24490247  1
  C  C904  1  0.94138264  0.39757220  0.24318612  1
  C  C905  1  0.93081273  0.33763838  0.24069706  1
  Cu  Cu906  1  0.51677957  0.30012604  0.42775030  1
  O  O907  1  0.52418571  0.27202143  0.48922663  1
  C  C908  1  0.58823913  0.28547753  0.33984528  1
  C  C909  1  0.61263452  0.28652426  0.38337024  1
  H  H910  1  0.59431886  0.32206168  0.31641239  1
  H  H911  1  0.60727244  0.43068154  0.42800427  1
  C  C912  1  0.70565923  0.40431616  0.43691435  1
  C  C913  1  0.69427924  0.46379154  0.41509865  1
  C  C914  1  0.59860689  0.46783533  0.45081059  1
  O  O915  1  0.53447712  0.37835178  0.42616037  1
  C  C916  1  0.55143420  0.46548221  0.47000518  1
  H  H917  1  0.67096968  0.45443395  0.38188847  1
  C  C918  1  0.69618164  0.40142066  0.48610777  1
  H  H919  1  0.64430878  0.31545049  0.39200345  1
  C  C920  1  0.72283673  0.35687034  0.41105647  1
  H  H921  1  0.72929919  0.36062433  0.37159831  1
  C  C922  1  0.72932129  0.30263108  0.43629494  1
  C  C923  1  0.72255651  0.30001355  0.48487311  1
  H  H924  1  0.73056153  0.47840952  0.40178745  1
  C  C925  1  0.52047669  0.41562682  0.45687874  1
  H  H926  1  0.73855991  0.26412811  0.41553676  1
  O  O927  1  0.99162354  0.47210063  0.46954547  1
  C  C928  1  0.89909734  0.48538938  0.32809526  1
  O  O929  1  0.84425056  0.49710688  0.43118243  1
  C  C930  1  0.99725596  0.48168191  0.25094250  1
  O  O931  1  0.98732011  0.41635316  0.25001501  1
  C  C932  1  0.97854957  0.48630005  0.36462904  1
  H  H933  1  0.97056331  0.30009580  0.34753846  1
  C  C934  1  0.93441870  0.45663322  0.35556268  1
  H  H935  1  0.92616415  0.41260585  0.36821683  1
  H  H936  1  0.86242922  0.46692893  0.31840260  1
  O  O937  1  0.67513073  0.43716656  0.72605949  1
  C  C938  1  0.71715083  0.34812986  0.72176962  1
  C  C939  1  0.56540866  0.35313914  0.68989166  1
  H  H940  1  0.69728723  0.38712248  0.65423377  1
  Cu  Cu941  1  0.60838546  0.46393535  0.71492653  1
  C  C942  1  0.56653432  0.32222199  0.60416746  1
  H  H943  1  0.67796979  0.35608896  0.58135520  1
  C  C944  1  0.71691324  0.35009448  0.67155142  1
  H  H945  1  0.60081822  0.34429405  0.59805782  1
  O  O946  1  0.59885413  0.39238315  0.67826082  1
  C  C947  1  0.71426999  0.35378011  0.56519804  1
  O  O948  1  0.59935932  0.30075867  0.51013696  1
  C  C949  1  0.55614211  0.28734427  0.52059073  1
  C  C950  1  0.74367523  0.30886419  0.74814494  1
  C  C951  1  0.54397952  0.32081996  0.64887170  1
  C  C952  1  0.53864720  0.29438205  0.56933306  1
  O  O953  1  0.54954393  0.34798659  0.72910862  1
  H  H954  1  0.72800697  0.39702143  0.57410999  1
  C  C955  1  0.73967336  0.30977252  0.64124712  1
  C  C956  1  0.69128334  0.39524377  0.74936194  1
  O  O957  1  0.74184792  0.30793859  0.59411108  1
  H  H958  1  0.69634267  0.47243879  0.63588826  1
  H  H959  1  0.50069422  0.49610449  0.51963075  1
  H  H960  1  0.67876601  0.43825034  0.50707295  1
  C  C961  1  0.71108484  0.35179567  0.51186802  1
  C  C962  1  0.50386261  0.28668388  0.66098956  1
  O  O963  1  0.73337969  0.49714795  0.57173123  1
  O  O964  1  0.54450213  0.48883347  0.70921162  1
  H  H965  1  0.73330214  0.25611420  0.50174976  1
  C  C966  1  0.76292186  0.26525264  0.71706601  1
  C  C967  1  0.76264271  0.26473226  0.66834225  1
  C  C968  1  0.94500439  0.29416061  0.69551858  1
  C  C969  1  0.93781276  0.46029431  0.72985354  1
  O  O970  1  0.94797327  0.35316889  0.69344284  1
  H  H971  1  0.88294501  0.45149570  0.67113528  1
  C  C972  1  0.94147971  0.39345729  0.73637993  1
  C  C973  1  0.90395646  0.48210222  0.69465758  1
  H  H974  1  0.97056283  0.28378352  0.62559977  1
  C  C975  1  0.92839043  0.26444132  0.73655509  1
  C  C976  1  0.95845375  0.25863808  0.65826180  1
  Cu  Cu977  1  0.99424959  0.44091046  0.53115253  1
  H  H978  1  0.79314043  0.48485003  0.50403481  1
  H  H979  1  0.74804250  0.31146675  0.78712685  1
  H  H980  1  0.53800295  0.42969246  0.77507123  1
  O  O981  1  0.68361572  0.38508891  0.79214777  1
  Cu  Cu982  1  0.61892306  0.37202342  0.82328276  1
  C  C983  1  0.51884850  0.46284380  0.79752766  1
  O  O984  1  0.53284787  0.39873868  0.91552700  1
  C  C985  1  0.51046547  0.45579381  0.84696038  1
  C  C986  1  0.53486807  0.40621664  0.86995102  1
  O  O987  1  0.55551865  0.36934070  0.84406888  1
  Cu  Cu988  1  0.56663099  0.33958530  0.94955120  1
  C  C989  1  0.69822451  0.35732605  0.91414043  1
  C  C990  1  0.69990243  0.38744900  0.95669793  1
  O  O991  1  0.62623170  0.30297982  0.93915058  1
  C  C992  1  0.65322477  0.32241050  0.90627135  1
  H  H993  1  0.66962124  0.39297296  0.98130968  1
  O  O994  1  0.64491661  0.31130273  0.86365006  1
  H  H995  1  0.73021212  0.33500909  0.84751365  1
  O  O996  1  0.52584475  0.27401513  0.93388298  1
  C  C997  1  0.73627925  0.35648800  0.88158454  1
  C  C998  1  0.74224921  0.42081580  0.96362353  1
  H  H999  1  0.70643780  0.49018801  0.81299379  1
  H  H1000  1  0.74501438  0.30403691  0.98751332  1
  H  H1001  1  0.90711085  0.37617942  0.75371584  1
  C  C1002  1  0.95434673  0.44163676  0.85981052  1
  H  H1003  1  0.86488779  0.48162822  0.78456496  1
  H  H1004  1  0.78105835  0.42746592  0.79165299  1
  H  H1005  1  0.98308935  0.49892964  0.98571326  1
  H  H1006  1  0.83289269  0.27587836  0.99095021  1
  C  C1007  1  0.78431383  0.47432032  0.79695932  1
  H  H1008  1  0.91873302  0.28819552  0.76993509  1
  C  C1009  1  0.86323105  0.42095509  0.87137504  1
  H  H1010  1  0.97647530  0.27339312  0.83775053  1
  H  H1011  1  0.97336463  0.37859866  0.75678069  1
  C  C1012  1  0.97111085  0.32074355  0.83959168  1
  H  H1013  1  0.99070459  0.46923589  0.78863571  1
  H  H1014  1  0.81140548  0.44598544  0.93632920  1
  C  C1015  1  0.92349495  0.34413347  0.84103638  1
  H  H1016  1  0.86138576  0.41119677  0.90925143  1
  C  C1017  1  0.96724748  0.49218985  0.76303088  1
  H  H1018  1  0.98217768  0.31448313  0.98031396  1
  O  O1019  1  0.91199680  0.39091351  0.97509798  1
  O  O1020  1  0.81899999  0.38041532  0.85873990  1
  H  H1021  1  0.89179799  0.31637947  0.84324787  1
  H  H1022  1  0.85329318  0.46904684  0.86541073  1
  H  H1023  1  0.94764265  0.48674574  0.87100871  1
  C  C1024  1  0.91448373  0.40271812  0.85561843  1
  H  H1025  1  0.97167459  0.41024367  0.93130242  1
  C  C1026  1  0.77921116  0.42016958  0.93026757  1
  C  C1027  1  0.78194661  0.38601733  0.88790254  1
  C  C1028  1  0.75181359  0.25742050  0.98736474  1
  H  H1029  1  0.72097713  0.65447355  0.07603199  1
  O  O1030  1  0.60447245  0.71502514  0.02633433  1
  O  O1031  1  0.74725552  0.63312973  0.16407721  1
  H  H1032  1  0.63168075  0.72560172  0.11067474  1
  C  C1033  1  0.75792914  0.67001106  0.06273553  1
  C  C1034  1  0.78671658  0.64396213  0.14537090  1
  C  C1035  1  0.92865902  0.63053401  0.21134293  1
  O  O1036  1  0.91672858  0.57705398  0.21543100  1
  C  C1037  1  0.96766132  0.64644563  0.17836069  1
  O  O1038  1  0.82715446  0.64439909  0.17282612  1
  C  C1039  1  0.79523368  0.66919968  0.09584894  1
  C  C1040  1  0.84169121  0.68782964  0.08191980  1
  H  H1041  1  0.87545186  0.68156337  0.10475178  1
  O  O1042  1  0.90035752  0.66844171  0.22787526  1
  Cu  Cu1043  1  0.83615378  0.69224746  0.22156570  1
  C  C1044  1  0.96632617  0.70173922  0.15681953  1
  C  C1045  1  0.95386133  0.59081118  0.03542235  1
  C  C1046  1  0.90429026  0.57651391  0.03503891  1
  H  H1047  1  0.97164790  0.59733579  0.07099002  1
  Cu  Cu1048  1  0.86267490  0.55121000  0.17430956  1
  O  O1049  1  0.89781966  0.57356490  0.11892974  1
  C  C1050  1  0.87815325  0.56403011  0.07931045  1
  O  O1051  1  0.83192115  0.51674229  0.22676568  1
  C  C1052  1  0.85309642  0.70503026  0.03559170  1
  O  O1053  1  0.89888620  0.72078864  0.02470585  1
  H  H1054  1  0.94108566  0.73592646  0.16919482  1
  O  O1055  1  0.83811279  0.53553728  0.07595661  1
  C  C1056  1  0.76650874  0.68977580  0.01598708  1
  C  C1057  1  0.81248077  0.70818765  0.00402219  1
  H  H1058  1  0.99934990  0.56004895  0.17811493  1
  C  C1059  1  0.63078748  0.51314537  0.46242841  1
  C  C1060  1  0.53407643  0.69562329  0.45720937  1
  O  O1061  1  0.70735162  0.71912300  0.46477135  1
  O  O1062  1  0.56970587  0.66703757  0.47082682  1
  C  C1063  1  0.61156830  0.55672822  0.49319651  1
  O  O1064  1  0.67608593  0.51494802  0.44546122  1
  C  C1065  1  0.54191035  0.74260479  0.42195484  1
  H  H1066  1  0.62445727  0.74066834  0.42707457  1
  C  C1067  1  0.72884732  0.62697695  0.49809256  1
  C  C1068  1  0.70268234  0.68231120  0.49830283  1
  H  H1069  1  0.97250107  0.50745579  0.27503159  1
  C  C1070  1  0.75898115  0.61330900  0.45890618  1
  H  H1071  1  0.76414327  0.64283975  0.42912891  1
  C  C1072  1  0.78552399  0.56158592  0.46187177  1
  H  H1073  1  0.94358246  0.61635360  0.31233432  1
  C  C1074  1  0.86503350  0.66648684  0.48344102  1
  O  O1075  1  0.82551677  0.57190402  0.38306469  1
  C  C1076  1  0.94250042  0.57098512  0.32604899  1
  C  C1077  1  0.82170884  0.53992708  0.42571587  1
  O  O1078  1  0.98530634  0.56827133  0.46113000  1
  O  O1079  1  0.89506828  0.62509294  0.47887174  1
  N  N1080  1  0.90446976  0.53955813  0.31483765  1
  C  C1081  1  0.98287609  0.54464256  0.34867856  1
  H  H1082  1  0.84242882  0.54660926  0.36217227  1
  O  O1083  1  0.91517282  0.73434808  0.37680738  1
  O  O1084  1  0.97021029  0.66716834  0.39298334  1
  C  C1085  1  0.95523901  0.71017763  0.36764422  1
  Cu  Cu1086  1  0.93742550  0.60434083  0.42536889  1
  C  C1087  1  0.98168146  0.73062137  0.32594542  1
  O  O1088  1  0.85579119  0.70158479  0.45123967  1
  C  C1089  1  0.69405567  0.56898272  0.63784991  1
  C  C1090  1  0.65525255  0.60729820  0.64243600  1
  C  C1091  1  0.66020268  0.66025351  0.66932080  1
  H  H1092  1  0.62198739  0.59819256  0.62210532  1
  H  H1093  1  0.58220197  0.67167360  0.67907238  1
  H  H1094  1  0.69465538  0.60631997  0.56831002  1
  C  C1095  1  0.70003933  0.66743156  0.70104261  1
  C  C1096  1  0.71942125  0.59218084  0.53934246  1
  O  O1097  1  0.57371155  0.63864036  0.56453909  1
  C  C1098  1  0.54680698  0.59917968  0.54569476  1
  C  C1099  1  0.69598812  0.51106880  0.60953878  1
  H  H1100  1  0.60903130  0.62714336  0.72666405  1
  C  C1101  1  0.61607459  0.69939222  0.67694836  1
  H  H1102  1  0.65818164  0.50927263  0.59254384  1
  C  C1103  1  0.74190646  0.53746701  0.53812624  1
  H  H1104  1  0.70015711  0.70336689  0.72817144  1
  C  C1105  1  0.52047522  0.53072536  0.73280093  1
  O  O1106  1  0.67030418  0.69061048  0.53022750  1
  H  H1107  1  0.51452868  0.69374427  0.69717700  1
  O  O1108  1  0.50194387  0.60146256  0.55270786  1
  C  C1109  1  0.56552060  0.55496489  0.51253667  1
  Cu  Cu1110  1  0.60150194  0.69396261  0.52368129  1
  O  O1111  1  0.60677759  0.74062708  0.72182788  1
  O  O1112  1  0.50881173  0.57455630  0.71385414  1
  H  H1113  1  0.60898842  0.73358853  0.65051762  1
  C  C1114  1  0.73811601  0.57760557  0.66551803  1
  C  C1115  1  0.73640324  0.62345366  0.69980124  1
  C  C1116  1  0.53548900  0.50614016  0.50132812  1
  H  H1117  1  0.63497808  0.59293424  0.50231667  1
  O  O1118  1  0.97343823  0.50509789  0.56310995  1
  H  H1119  1  0.76900494  0.54567078  0.66725601  1
  H  H1120  1  0.76771895  0.62275805  0.72550416  1
  H  H1121  1  0.85474861  0.54383165  0.62534058  1
  H  H1122  1  0.90290027  0.59784478  0.62475412  1
  C  C1123  1  0.80066088  0.69932707  0.61884484  1
  O  O1124  1  0.84277549  0.62363637  0.65607059  1
  C  C1125  1  0.83458521  0.65249415  0.61553033  1
  C  C1126  1  0.85455233  0.64333305  0.57019903  1
  H  H1127  1  0.87847826  0.60760761  0.56167614  1
  C  C1128  1  0.87648215  0.57439769  0.64849375  1
  H  H1129  1  0.96890819  0.60894118  0.54753711  1
  C  C1130  1  0.93784443  0.57598002  0.71758941  1
  C  C1131  1  0.84336802  0.67827141  0.53125881  1
  C  C1132  1  0.90445013  0.54329169  0.69046342  1
  C  C1133  1  0.98472102  0.62681227  0.58036932  1
  C  C1134  1  0.81140299  0.72593446  0.53839474  1
  O  O1135  1  0.97146411  0.73175746  0.55885509  1
  C  C1136  1  0.98487392  0.68618881  0.58956528  1
  H  H1137  1  0.77914573  0.70676354  0.65275029  1
  H  H1138  1  0.94229417  0.62344034  0.70598226  1
  C  C1139  1  0.99260872  0.52084449  0.60201568  1
  C  C1140  1  0.99973303  0.58250447  0.61246153  1
  C  C1141  1  0.79025941  0.73814184  0.58216231  1
  C  C1142  1  0.77495901  0.52595776  0.50031664  1
  H  H1143  1  0.92188388  0.74671051  0.74649865  1
  O  O1144  1  0.62697876  0.53058407  0.75120981  1
  C  C1145  1  0.50485134  0.51731163  0.78271131  1
  C  C1146  1  0.58890431  0.73111165  0.80772509  1
  C  C1147  1  0.60330698  0.64624139  0.76109207  1
  C  C1148  1  0.59962007  0.70868333  0.76187728  1
  C  C1149  1  0.61264327  0.54647739  0.79412616  1
  C  C1150  1  0.58546545  0.69438688  0.84785502  1
  C  C1151  1  0.60322653  0.60920895  0.80078434  1
  C  C1152  1  0.59351560  0.63346547  0.84531109  1
  H  H1153  1  0.59076187  0.60807654  0.87831026  1
  O  O1154  1  0.57038001  0.67977931  0.93156356  1
  C  C1155  1  0.57138116  0.71337208  0.89611392  1
  C  C1156  1  0.72793170  0.69157020  0.98118870  1
  Cu  Cu1157  1  0.62792305  0.67550169  0.96921399  1
  O  O1158  1  0.61401008  0.51330710  0.82722577  1
  O  O1159  1  0.73089715  0.73927348  0.84774820  1
  C  C1160  1  0.74264034  0.51009314  0.80567281  1
  O  O1161  1  0.73093290  0.70280303  0.93710764  1
  H  H1162  1  0.71603143  0.60246800  0.81125824  1
  C  C1163  1  0.74754850  0.57181895  0.80743676  1
  O  O1164  1  0.68669302  0.67382796  0.99800146  1
  O  O1165  1  0.91133748  0.70430238  0.83094342  1
  C  C1166  1  0.82935415  0.50361847  0.78978034  1
  C  C1167  1  0.90839918  0.73783750  0.97241637  1
  H  H1168  1  0.81849304  0.56826864  0.86838865  1
  C  C1169  1  0.95685190  0.58631492  0.95142200  1
  C  C1170  1  0.88069497  0.57312678  0.90271344  1
  H  H1171  1  0.82036058  0.72674522  0.96863161  1
  N  N1172  1  0.79052871  0.59950521  0.80178936  1
  H  H1173  1  0.84063363  0.55896854  0.99096049  1
  C  C1174  1  0.87951449  0.56838439  0.99195167  1
  H  H1175  1  0.86195811  0.59334704  0.79480855  1
  C  C1176  1  0.82881240  0.56533257  0.79636257  1
  H  H1177  1  0.97866887  0.59129768  0.91760052  1
  H  H1178  1  0.90489642  0.69377338  0.95514721  1
  C  C1179  1  0.98129764  0.59788490  0.99374197  1
  C  C1180  1  0.87508461  0.72948668  0.80631971  1
  C  C1181  1  0.96700731  0.55294402  0.75463974  1
  H  H1182  1  0.99006894  0.58130606  0.77697207  1
  C  C1183  1  0.82750168  0.73352731  0.82302385  1
  H  H1184  1  0.96584306  0.68482812  0.77951843  1
  H  H1185  1  0.96891452  0.65767959  0.88684243  1
  O  O1186  1  0.90435466  0.57897492  0.86846385  1
  C  C1187  1  0.96410890  0.71521558  0.81021651  1
  C  C1188  1  0.90618353  0.57406482  0.95020034  1
  O  O1189  1  0.82966382  0.56353871  0.90065317  1
  H  H1190  1  0.81922147  0.71894760  0.86037204  1
  C  C1191  1  0.60401742  0.86484897  0.07020364  1
  H  H1192  1  0.59049463  0.88806650  0.03742096  1
  C  C1193  1  0.61113363  0.80309069  0.07303359  1
  C  C1194  1  0.60739170  0.89094812  0.11456950  1
  C  C1195  1  0.63407649  0.80130375  0.15747930  1
  C  C1196  1  0.61949580  0.86148233  0.15541611  1
  C  C1197  1  0.62600247  0.77326134  0.11239025  1
  C  C1198  1  0.60228956  0.77025998  0.02782555  1
  H  H1199  1  0.62117412  0.88591662  0.18954608  1
  O  O1200  1  0.64906866  0.77920374  0.19625869  1
  C  C1201  1  0.59528581  0.95584991  0.11649749  1
  C  C1202  1  0.65029574  0.81082013  0.24705239  1
  O  O1203  1  0.59048839  0.98509245  0.07659468  1
  O  O1204  1  0.59609061  0.98046984  0.15349032  1
  O  O1205  1  0.53163447  0.94655504  0.00053416  1
  O  O1206  1  0.96355816  0.80957765  0.11028077  1
  O  O1207  1  0.92173914  0.90684323  0.09269331  1
  O  O1208  1  0.85819817  0.90080740  0.14052096  1
  C  C1209  1  0.88083860  0.92542779  0.10667218  1
  O  O1210  1  0.83687780  0.82086042  0.20589002  1
  Cu  Cu1211  1  0.88590695  0.88199681  0.19480763  1
  Cu  Cu1212  1  0.96131872  0.88111114  0.14308422  1
  H  H1213  1  0.78626648  0.90267625  0.23296563  1
  H  H1214  1  0.86262920  0.81176248  0.02597263  1
  H  H1215  1  0.95932742  0.84565618  0.02930708  1
  C  C1216  1  0.97254535  0.85172553  0.23653908  1
  O  O1217  1  0.92897654  0.86409413  0.24638920  1
  C  C1218  1  0.83074655  0.80533555  0.24847253  1
  O  O1219  1  0.99429641  0.87189983  0.19971786  1
  C  C1220  1  0.85977281  0.98395118  0.09844079  1
  H  H1221  1  0.90911615  0.99561866  0.04134917  1
  H  H1222  1  0.80045909  0.98014039  0.15418428  1
  H  H1223  1  0.81839196  0.90420170  0.00457171  1
  H  H1224  1  0.68740304  0.82505863  0.25142034  1
  C  C1225  1  0.50286754  0.76961462  0.39886242  1
  H  H1226  1  0.52453642  0.99213136  0.28009697  1
  H  H1227  1  0.55153664  0.80514722  0.25225618  1
  C  C1228  1  0.61506637  0.85961764  0.26108717  1
  C  C1229  1  0.56425320  0.85040598  0.25933642  1
  C  C1230  1  0.63429192  0.91724481  0.26648096  1
  C  C1231  1  0.55079496  0.95563052  0.27371647  1
  H  H1232  1  0.67317808  0.92771117  0.26103795  1
  H  H1233  1  0.64727261  0.77166936  0.27126641  1
  C  C1234  1  0.51117999  0.81654013  0.36778274  1
  C  C1235  1  0.53321842  0.89657549  0.27421010  1
  H  H1236  1  0.56612043  0.87624544  0.34249098  1
  C  C1237  1  0.55867673  0.83996239  0.36564977  1
  Cu  Cu1238  1  0.68863339  0.79407102  0.47289869  1
  C  C1239  1  0.64747135  0.83877396  0.38845810  1
  C  C1240  1  0.59716993  0.81204973  0.38777160  1
  O  O1241  1  0.65294460  0.88585942  0.37072697  1
  H  H1242  1  0.61360011  0.93356504  0.43912512  1
  O  O1243  1  0.66772578  0.86980972  0.48203600  1
  C  C1244  1  0.69040011  0.91736535  0.49160618  1
  O  O1245  1  0.68227636  0.80702818  0.40483176  1
  C  C1246  1  0.67158672  0.97416823  0.47773518  1
  C  C1247  1  0.62760259  0.97441244  0.45037429  1
  C  C1248  1  0.59003136  0.76142384  0.41411875  1
  H  H1249  1  0.70748611  0.99632756  0.34805289  1
  C  C1250  1  0.60190183  0.96619627  0.27349107  1
  O  O1251  1  0.74985733  0.98322963  0.29107210  1
  H  H1252  1  0.54707329  0.79308185  0.49978046  1
  H  H1253  1  0.98784254  0.77776092  0.48341631  1
  Cu  Cu1254  1  0.88405476  0.77118343  0.42809850  1
  C  C1255  1  0.81046393  0.85079456  0.41789372  1
  C  C1256  1  0.91871681  0.90309601  0.46153002  1
  O  O1257  1  0.84189206  0.75254699  0.26336094  1
  H  H1258  1  0.83684734  0.78501784  0.34071306  1
  H  H1259  1  0.92385563  0.79115486  0.30441235  1
  C  C1260  1  0.81963675  0.82751200  0.33408427  1
  C  C1261  1  0.96173617  0.81394554  0.49021675  1
  H  H1262  1  0.97110922  0.89239709  0.38297048  1
  C  C1263  1  0.81289478  0.84226242  0.28510627  1
  C  C1264  1  0.96048831  0.77509580  0.29727475  1
  C  C1265  1  0.98094585  0.85343901  0.40792453  1
  C  C1266  1  0.77386839  0.93550780  0.30595265  1
  H  H1267  1  0.76534998  0.94997766  0.38019474  1
  O  O1268  1  0.80020027  0.88211327  0.45307092  1
  C  C1269  1  0.78276443  0.92093533  0.35332149  1
  C  C1270  1  0.98811806  0.80031762  0.26142146  1
  O  O1271  1  0.82478654  0.79873854  0.42455939  1
  C  C1272  1  0.80550672  0.86937620  0.36765857  1
  C  C1273  1  0.95063494  0.85389554  0.45262107  1
  C  C1274  1  0.79146961  0.89463240  0.27218193  1
  H  H1275  1  0.97272660  0.81350444  0.38696534  1
  H  H1276  1  0.90565306  0.92981123  0.43057661  1
  C  C1277  1  0.62961377  0.81079097  0.57376235  1
  H  H1278  1  0.57307837  0.91181095  0.65657090  1
  N  N1279  1  0.59977567  0.78333439  0.54314864  1
  C  C1280  1  0.63237345  0.86962010  0.58149481  1
  H  H1281  1  0.66082374  0.88600722  0.60658172  1
  C  C1282  1  0.53353197  0.92550523  0.65281636  1
  O  O1283  1  0.52977107  0.96906770  0.61469805  1
  H  H1284  1  0.65426936  0.77951452  0.59050965  1
  H  H1285  1  0.53206831  0.82687089  0.71629930  1
  C  C1286  1  0.59688610  0.90749846  0.56165763  1
  H  H1287  1  0.52210892  0.95688256  0.68403196  1
  C  C1288  1  0.50130732  0.87154166  0.65353191  1
  O  O1289  1  0.74912184  0.99483935  0.74188207  1
  O  O1290  1  0.72917607  0.91696331  0.51659221  1
  H  H1291  1  0.59533926  0.95353945  0.57003808  1
  O  O1292  1  0.73701106  0.81550584  0.55705347  1
  O  O1293  1  0.73546139  0.78776780  0.63391271  1
  H  H1294  1  0.53023516  0.90612668  0.51746613  1
  C  C1295  1  0.56227658  0.87877778  0.53336443  1
  C  C1296  1  0.56710298  0.81909540  0.52529737  1
  C  C1297  1  0.50383484  0.82690861  0.68700346  1
  C  C1298  1  0.75088236  0.78457939  0.59322517  1
  C  C1299  1  0.94619407  0.95337322  0.65105403  1
  C  C1300  1  0.96126682  0.78830166  0.57616195  1
  H  H1301  1  0.90646003  0.89130300  0.58269206  1
  C  C1302  1  0.83068591  0.97307673  0.71743500  1
  O  O1303  1  0.84004172  0.83284455  0.65607426  1
  C  C1304  1  0.86623979  0.80153291  0.67984656  1
  C  C1305  1  0.94733193  0.83041939  0.53550259  1
  C  C1306  1  0.91773022  0.87820470  0.54576023  1
  H  H1307  1  0.77550420  0.81179776  0.72853991  1
  C  C1308  1  0.90975196  0.94631411  0.68941216  1
  O  O1309  1  0.90531217  0.78307956  0.66673099  1
  O  O1310  1  0.98889734  0.93677525  0.65989610  1
  C  C1311  1  0.91832393  0.91602836  0.73136853  1
  H  H1312  1  0.93318518  0.78743140  0.60430935  1
  C  C1313  1  0.84992510  0.78266741  0.73433956  1
  C  C1314  1  0.86455873  0.97424049  0.68117469  1
  H  H1315  1  0.95401228  0.89613660  0.73437492  1
  O  O1316  1  0.93799507  0.98714437  0.61625375  1
  H  H1317  1  0.99494993  0.80478891  0.59649953  1
  Cu  Cu1318  1  0.76773278  0.85355593  0.51075120  1
  H  H1319  1  0.80426093  0.75423080  0.50842243  1
  H  H1320  1  0.85895732  0.99820578  0.64974103  1
  C  C1321  1  0.89814637  0.91024034  0.50788306  1
  H  H1322  1  0.87185704  0.94676004  0.51341837  1
  O  O1323  1  0.58344996  0.93224104  0.75009109  1
  C  C1324  1  0.50010336  0.98224903  0.89961275  1
  H  H1325  1  0.51105523  0.97636938  0.77992181  1
  Cu  Cu1326  1  0.71521076  0.77426281  0.90588980  1
  Cu  Cu1327  1  0.53694163  0.80140894  0.95684932  1
  C  C1328  1  0.51847499  0.97279262  0.81806570  1
  Cu  Cu1329  1  0.67617187  0.85765491  0.79407425  1
  C  C1330  1  0.59544986  0.93049620  0.79086083  1
  C  C1331  1  0.56305226  0.95042142  0.83196224  1
  O  O1332  1  0.63964865  0.92059139  0.80498424  1
  H  H1333  1  0.61743376  0.93593448  0.88613617  1
  C  C1334  1  0.57911418  0.94346030  0.87768646  1
  H  H1335  1  0.69682442  0.93135801  0.97032541  1
  O  O1336  1  0.70239761  0.85295228  0.91482417  1
  C  C1337  1  0.70899481  0.96605038  0.94582648  1
  C  C1338  1  0.71417467  0.89009903  0.88333667  1
  H  H1339  1  0.58060360  0.77842213  0.81163546  1
  O  O1340  1  0.71066030  0.78694950  0.78167041  1
  C  C1341  1  0.72000541  0.95072215  0.89888583  1
  O  O1342  1  0.59804567  0.91724715  0.96794597  1
  O  O1343  1  0.72350643  0.87507145  0.84111106  1
  C  C1344  1  0.54408291  0.95719305  0.91327163  1
  C  C1345  1  0.55900325  0.93969882  0.96251947  1
  O  O1346  1  0.59253277  0.79803779  0.99055622  1
  O  O1347  1  0.56707084  0.76872808  0.90142273  1
  C  C1348  1  0.73302498  0.99053798  0.86260721  1
  H  H1349  1  0.74039234  0.97318158  0.82607410  1
  C  C1350  1  0.74132006  0.76282909  0.80902641  1
  H  H1351  1  0.94668103  0.75141245  0.97524957  1
  C  C1352  1  0.88453984  0.75536177  0.76087191  1
  C  C1353  1  0.80259827  0.78872947  0.75010170  1
  C  C1354  1  0.83808943  0.94308871  0.75950364  1
  O  O1355  1  0.89240326  0.88297469  0.80782477  1
  C  C1356  1  0.83141066  0.87479209  0.97725699  1
  C  C1357  1  0.88304205  0.91260279  0.76756501  1
  C  C1358  1  0.87622718  0.78622878  0.95140417  1
  C  C1359  1  0.97605001  0.88059339  0.91325795  1
  H  H1360  1  0.93138836  0.92352358  0.96684694  1
  C  C1361  1  0.95836492  0.88896636  0.95936412  1
  C  C1362  1  0.85929893  0.82400993  0.98820957  1
  C  C1363  1  0.87484899  0.80595771  0.90377833  1
  H  H1364  1  0.82240806  0.85935291  0.82302696  1
  C  C1365  1  0.82622567  0.89147758  0.92855666  1
  C  C1366  1  0.85331639  0.86130095  0.89239025  1
  H  H1367  1  0.89368347  0.77833094  0.87687972  1
  C  C1368  1  0.97389689  0.84702443  0.99355767  1
  H  H1369  1  0.96529952  0.75686148  0.79354885  1
  C  C1370  1  0.79244347  0.76216896  0.79443678  1
  H  H1371  1  0.83950348  0.93169184  0.83770677  1
  H  H1372  1  0.96105768  0.90640361  0.88115455  1
  H  H1373  1  0.80470322  0.92789023  0.91819872  1
  H  H1374  1  0.80821538  0.94273792  0.78607551  1
  C  C1375  1  0.85171410  0.88614956  0.84144826  1
