# generated using pymatgen
data_Zn4H36C60O13
_symmetry_space_group_name_H-M   'P 1'
_cell_length_a   23.78394256
_cell_length_b   18.33283455
_cell_length_c   36.30849657
_cell_angle_alpha   90.00000000
_cell_angle_beta   90.00000000
_cell_angle_gamma   90.00000000
_symmetry_Int_Tables_number   1
_chemical_formula_structural   Zn4H36C60O13
_chemical_formula_sum   'Zn48 H432 C720 O156'
_cell_volume   15831.48788253
_cell_formula_units_Z   12
loop_
 _symmetry_equiv_pos_site_id
 _symmetry_equiv_pos_as_xyz
  1  'x, y, z'
loop_
 _atom_site_type_symbol
 _atom_site_label
 _atom_site_symmetry_multiplicity
 _atom_site_fract_x
 _atom_site_fract_y
 _atom_site_fract_z
 _atom_site_occupancy
  C  C0  1  0.06470170  0.15302257  0.18407755  1
  H  H1  1  0.32450566  0.18760290  0.24010238  1
  H  H2  1  0.07928436  0.17310645  0.21130380  1
  C  C3  1  0.47079955  0.06250334  0.08738543  1
  C  C4  1  0.06438020  0.07606485  0.17738491  1
  C  C5  1  0.41332030  0.06135777  0.22684517  1
  C  C6  1  0.13669577  0.33477856  0.08683487  1
  C  C7  1  0.14782952  0.37841441  0.05680082  1
  O  O8  1  0.12777412  0.49466141  0.08512365  1
  C  C9  1  0.14094422  0.25826990  0.08622771  1
  C  C10  1  0.13744162  0.09524489  0.07931924  1
  C  C11  1  0.24289302  0.36626555  0.23882705  1
  H  H12  1  0.29265691  0.28216269  0.02298042  1
  H  H13  1  0.11585214  0.11907294  0.10395703  1
  H  H14  1  0.12178857  0.22211538  0.10709506  1
  H  H15  1  0.11815030  0.35980500  0.11119313  1
  C  C16  1  0.27661601  0.36962557  0.06147287  1
  C  C17  1  0.46617232  0.18176435  0.12199558  1
  C  C18  1  0.18324946  0.11188329  0.02007124  1
  H  H19  1  0.03573258  0.32692073  0.11308831  1
  C  C20  1  0.07788051  0.33827922  0.22963726  1
  C  C21  1  0.10786809  0.40061477  0.21833948  1
  H  H22  1  0.14886124  0.39384938  0.20476502  1
  C  C23  1  0.03961078  0.20013942  0.15808048  1
  H  H24  1  0.03419312  0.26135685  0.16413900  1
  C  C25  1  0.02762904  0.10366779  0.11307986  1
  C  C26  1  0.16671267  0.04635601  0.23789471  1
  C  C27  1  0.27744683  0.41877721  0.02735082  1
  C  C28  1  0.13990048  0.46070546  0.05676953  1
  C  C29  1  0.17544237  0.26847339  0.02238980  1
  C  C30  1  0.00386842  0.22655128  0.09022373  1
  C  C31  1  0.02307722  0.17748294  0.12162663  1
  H  H32  1  0.39196131  0.38029830  0.07485473  1
  C  C33  1  0.08596391  0.47178300  0.22690559  1
  C  C34  1  0.16235105  0.22615617  0.05433742  1
  H  H35  1  0.09129234  0.28236192  0.22395073  1
  C  C36  1  0.40344710  0.32293316  0.01659767  1
  H  H37  1  0.45040051  0.41909441  0.02837029  1
  C  C38  1  0.37498767  0.46384785  0.17096675  1
  H  H39  1  0.44185715  0.38702821  0.19095269  1
  C  C40  1  0.49840648  0.32386460  0.04266625  1
  C  C41  1  0.40589997  0.24480603  0.02093450  1
  C  C42  1  0.13721880  0.01931383  0.07060398  1
  C  C43  1  0.49476399  0.24725243  0.04986296  1
  C  C44  1  0.17599766  0.03824906  0.00832343  1
  H  H45  1  0.06628486  0.08547261  0.02747593  1
  C  C46  1  0.44896639  0.17232400  0.20215605  1
  C  C47  1  0.35439091  0.46498018  0.10661572  1
  C  C48  1  0.04484668  0.05315833  0.14140374  1
  H  H49  1  0.20617242  0.05986343  0.22429995  1
  C  C50  1  0.44913584  0.20680714  0.03934157  1
  C  C51  1  0.29241968  0.10154341  0.20466155  1
  C  C52  1  0.43367490  0.24624340  0.11891911  1
  C  C53  1  0.29548436  0.24488677  0.08046952  1
  C  C54  1  0.30700813  0.17360110  0.21225125  1
  O  O55  1  0.14349686  0.49194871  0.02590905  1
  H  H56  1  0.24397976  0.01170923  0.10034314  1
  C  C57  1  0.42518049  0.38158921  0.13054350  1
  H  H58  1  0.46480680  0.06665964  0.17572877  1
  C  C59  1  0.28270162  0.26692523  0.11769226  1
  H  H60  1  0.36039450  0.49075029  0.19730738  1
  C  C61  1  0.45290582  0.35957038  0.02800324  1
  C  C62  1  0.26570613  0.13587942  0.14009408  1
  H  H63  1  0.38897736  0.23858447  0.11580608  1
  H  H64  1  0.24668235  0.11998544  0.11380871  1
  H  H65  1  0.29127072  0.06518387  0.22836169  1
  H  H66  1  0.37290273  0.10903929  0.15499604  1
  H  H67  1  0.07846171  0.03955578  0.19778129  1
  O  O68  1  0.26305753  0.36000886  0.20872982  1
  C  C69  1  0.26487600  0.39079108  0.09772099  1
  H  H70  1  0.44442334  0.14626457  0.04224369  1
  C  C71  1  0.16544071  0.34380655  0.02429348  1
  C  C72  1  0.30790772  0.22400525  0.18306854  1
  H  H73  1  0.01807551  0.39512625  0.04959052  1
  C  C74  1  0.41561554  0.40969708  0.16686626  1
  C  C75  1  0.39541789  0.07476810  0.13488578  1
  C  C76  1  0.26889576  0.08410851  0.16914518  1
  C  C77  1  0.26729618  0.33939186  0.12557039  1
  C  C78  1  0.00755282  0.33642005  0.05426558  1
  C  C79  1  0.46100697  0.31329057  0.12798447  1
  C  C80  1  0.16327705  0.14323783  0.05373001  1
  C  C81  1  0.01758668  0.30165330  0.08800701  1
  C  C82  1  0.44607196  0.09611636  0.19922953  1
  C  C83  1  0.39201014  0.40743239  0.10123477  1
  O  O84  1  0.34332658  0.08685289  0.04260541  1
  H  H85  1  0.32460159  0.28064906  0.18834516  1
  C  C86  1  0.28878773  0.29626970  0.05234685  1
  C  C87  1  0.28440047  0.20758914  0.14803574  1
  H  H88  1  0.30860159  0.19122528  0.07207683  1
  H  H89  1  0.47526687  0.20377112  0.18309266  1
  H  H90  1  0.25697844  0.35884965  0.15370981  1
  H  H91  1  0.24964549  0.44487632  0.10438051  1
  C  C92  1  0.44167353  0.10527257  0.11446328  1
  C  C93  1  0.34100855  0.12629796  0.01102702  1
  H  H94  1  0.01887252  0.08575004  0.08437984  1
  C  C95  1  0.25993118  0.00416971  0.16232993  1
  H  H96  1  0.32814010  0.48194672  0.08301531  1
  H  H97  1  0.38420187  0.07005366  0.04197374  1
  O  O98  1  0.27256439  0.48704529  0.03601719  1
  C  C99  1  0.34231044  0.48965889  0.14142793  1
  C  C100  1  0.43470589  0.29188969  0.24105160  1
  C  C101  1  0.36237539  0.19912795  0.00135139  1
  C  C102  1  0.42859433  0.20851464  0.23474368  1
  C  C103  1  0.38135222  0.00127100  0.12977084  1
  C  C104  1  0.38791336  0.34085385  0.24833998  1
  C  C105  1  0.49084683  0.30867109  0.23691022  1
  H  H106  1  0.34502907  0.32094051  0.24750008  1
  C  C107  1  0.02538547  0.35154211  0.24660060  1
  C  C108  1  0.03323838  0.48358629  0.24546879  1
  H  H109  1  0.17102309  0.38140989  0.00078708  1
  H  H110  1  0.37025536  0.35015957  0.00087681  1
  H  H111  1  0.20851423  0.14492019  0.00064449  1
  C  C112  1  0.03100332  0.09220652  0.38740590  1
  C  C113  1  0.08931962  0.06920997  0.38586947  1
  H  H114  1  0.07325313  0.22255449  0.38240077  1
  C  C115  1  0.13268411  0.12785809  0.39308213  1
  C  C116  1  0.11585489  0.20331565  0.38870117  1
  H  H117  1  0.15332896  0.14723057  0.47469527  1
  C  C118  1  0.18635889  0.10744627  0.40369613  1
  C  C119  1  0.11378525  0.12144877  0.48280088  1
  H  H120  1  0.12194373  0.40156512  0.44397110  1
  C  C121  1  0.03948103  0.37352949  0.42842265  1
  C  C122  1  0.09100005  0.35545742  0.44611519  1
  C  C123  1  0.10063718  0.28986643  0.46414201  1
  C  C124  1  0.05784510  0.23575908  0.46326734  1
  C  C125  1  0.46200919  0.43446527  0.25356315  1
  C  C126  1  0.06258780  0.16027107  0.48039157  1
  C  C127  1  0.22954378  0.01817809  0.30703977  1
  C  C128  1  0.15475971  0.25843346  0.39468387  1
  H  H129  1  0.14185419  0.31593277  0.39376598  1
  H  H130  1  0.18926207  0.35735678  0.34639738  1
  H  H131  1  0.13884733  0.30474483  0.30392342  1
  H  H132  1  0.19805085  0.05052293  0.40808341  1
  O  O133  1  0.45783080  0.05138233  0.37097024  1
  Zn  Zn134  1  0.21968749  0.46186509  0.26666713  1
  C  C135  1  0.33060875  0.04280651  0.34798532  1
  C  C136  1  0.18231264  0.22468695  0.26610006  1
  H  H137  1  0.19035745  0.00573736  0.29096046  1
  H  H138  1  0.36513254  0.07001711  0.27785900  1
  C  C139  1  0.49913937  0.33425581  0.33639115  1
  C  C140  1  0.07803245  0.06597037  0.27208090  1
  Zn  Zn141  1  0.06717813  0.15868996  0.30230754  1
  H  H142  1  0.35855991  0.47355604  0.38143469  1
  C  C143  1  0.17298892  0.29624531  0.28398840  1
  C  C144  1  0.13335139  0.09498813  0.26131260  1
  C  C145  1  0.02860231  0.44381480  0.40950203  1
  O  O146  1  0.10748606  0.45094948  0.32448317  1
  C  C147  1  0.00500708  0.25235918  0.44585762  1
  H  H148  1  0.36811670  0.05133100  0.36404857  1
  H  H149  1  0.46984403  0.49289973  0.25576915  1
  C  C150  1  0.21269516  0.39587645  0.36603444  1
  C  C151  1  0.33635044  0.39852038  0.46534312  1
  C  C152  1  0.49133206  0.47162289  0.49948367  1
  C  C153  1  0.30226324  0.08357151  0.43269520  1
  C  C154  1  0.42818115  0.33470489  0.46915853  1
  O  O155  1  0.00114846  0.22456076  0.25081430  1
  H  H156  1  0.48652627  0.15998919  0.37688853  1
  H  H157  1  0.02089416  0.13938134  0.40635401  1
  C  C158  1  0.20844182  0.24081558  0.41120086  1
  O  O159  1  0.45142819  0.05523806  0.49247709  1
  C  C160  1  0.11353120  0.04379007  0.49002876  1
  C  C161  1  0.18563678  0.46456538  0.37294767  1
  C  C162  1  0.34420528  0.19464796  0.47731635  1
  H  H163  1  0.47603382  0.36924544  0.31630091  1
  H  H164  1  0.28235235  0.32203501  0.37315774  1
  C  C165  1  0.42701884  0.11626188  0.49459645  1
  H  H166  1  0.30097396  0.41804898  0.48093226  1
  C  C167  1  0.38257154  0.18457812  0.35178825  1
  H  H168  1  0.46206499  0.31333964  0.48608445  1
  H  H169  1  0.40189816  0.36116646  0.31450174  1
  C  C170  1  0.29087801  0.23845094  0.32302088  1
  C  C171  1  0.43173623  0.33543853  0.43024415  1
  H  H172  1  0.28769581  0.04144683  0.41479238  1
  H  H173  1  0.22358217  0.13151035  0.30459555  1
  H  H174  1  0.21771235  0.10750092  0.48996749  1
  C  C175  1  0.20199922  0.35042701  0.26791011  1
  C  C176  1  0.30283508  0.10388648  0.32922402  1
  C  C177  1  0.41278344  0.25576849  0.34130619  1
  C  C178  1  0.32008350  0.30556870  0.31586580  1
  C  C179  1  0.22161505  0.16580598  0.41592109  1
  C  C180  1  0.00316725  0.42048680  0.25558019  1
  C  C181  1  0.32286848  0.17638930  0.33488229  1
  H  H182  1  0.37333159  0.45255468  0.26046251  1
  H  H183  1  0.46889841  0.32051428  0.41509795  1
  H  H184  1  0.27220009  0.26199573  0.46138078  1
  C  C185  1  0.13535634  0.48041974  0.34771452  1
  C  C186  1  0.37901158  0.30881331  0.32350174  1
  C  C187  1  0.40188774  0.17305621  0.26459687  1
  C  C188  1  0.27457671  0.14980685  0.43670272  1
  C  C189  1  0.47159254  0.26811253  0.35032072  1
  H  H190  1  0.41203465  0.13663399  0.34861212  1
  H  H191  1  0.39214848  0.35665630  0.37860132  1
  H  H192  1  0.23935521  0.28181834  0.42087361  1
  C  C193  1  0.26453714  0.49226183  0.41697383  1
  C  C194  1  0.01030835  0.04994700  0.49426025  1
  H  H195  1  0.38511802  0.20666214  0.28755367  1
  C  C196  1  0.40579329  0.41203144  0.25402389  1
  H  H197  1  0.37310729  0.19417662  0.38074973  1
  C  C198  1  0.37329774  0.12851614  0.47463678  1
  C  C199  1  0.29383384  0.20634157  0.46033880  1
  H  H200  1  0.24812903  0.23050957  0.31249057  1
  C  C201  1  0.38651462  0.35983099  0.40924599  1
  H  H202  1  0.37218358  0.01917171  0.45390005  1
  C  C203  1  0.33935981  0.39489954  0.42677293  1
  C  C204  1  0.26248406  0.37444199  0.38172674  1
  C  C205  1  0.39198824  0.09741210  0.25889542  1
  H  H206  1  0.14047559  0.27799081  0.47967761  1
  C  C207  1  0.05286078  0.00613832  0.26221387  1
  C  C208  1  0.28600932  0.42183132  0.40885380  1
  C  C209  1  0.35205383  0.07245014  0.45229182  1
  C  C210  1  0.14421196  0.17358417  0.27333163  1
  C  C211  1  0.24890601  0.08701200  0.31233622  1
  H  H212  1  0.29683577  0.35552940  0.30406130  1
  O  O213  1  0.06342356  0.49443866  0.41136488  1
  C  C214  1  0.00944337  0.12646041  0.48784740  1
  C  C215  1  0.05911740  0.00831717  0.49201332  1
  C  C216  1  0.10768890  0.00990551  0.36056840  1
  H  H217  1  0.15396665  0.01143122  0.35400923  1
  C  C218  1  0.38343161  0.37257649  0.48557440  1
  H  H219  1  0.36252399  0.24255721  0.49389608  1
  H  H220  1  0.22333729  0.21275593  0.25123673  1
  O  O221  1  0.06946336  0.26187396  0.62897893  1
  Zn  Zn222  1  0.15649507  0.26959729  0.64524857  1
  O  O223  1  0.16802619  0.37683524  0.65570947  1
  H  H224  1  0.13719181  0.40602318  0.66715491  1
  Zn  Zn225  1  0.21918274  0.44190387  0.68599675  1
  O  O226  1  0.19952448  0.26263244  0.59392964  1
  C  C227  1  0.04439637  0.13106406  0.59118356  1
  H  H228  1  0.07662527  0.16711508  0.57775340  1
  H  H229  1  0.05310072  0.03736713  0.55340085  1
  C  C230  1  0.19831266  0.20045070  0.57865908  1
  O  O231  1  0.17743221  0.19033441  0.54917324  1
  O  O232  1  0.19472737  0.20620994  0.68834811  1
  H  H233  1  0.20274004  0.04646265  0.56307347  1
  C  C234  1  0.20533018  0.06205750  0.70459526  1
  H  H235  1  0.22533716  0.08373819  0.67893754  1
  C  C236  1  0.08700156  0.41988778  0.53384364  1
  C  C237  1  0.01825449  0.14825559  0.62518860  1
  O  O238  1  0.45014460  0.16939262  0.51171385  1
  C  C239  1  0.03517088  0.21983565  0.64320651  1
  C  C240  1  0.23219608  0.13555264  0.59601837  1
  O  O241  1  0.01116668  0.40313454  0.65958090  1
  C  C242  1  0.22681165  0.06060738  0.58788231  1
  C  C243  1  0.11133424  0.48412076  0.73468536  1
  H  H244  1  0.46160518  0.44030849  0.55423361  1
  O  O245  1  0.30085363  0.41576640  0.65495313  1
  C  C246  1  0.39805472  0.01464043  0.66543920  1
  C  C247  1  0.06358774  0.35510204  0.54983707  1
  H  H248  1  0.27586640  0.21256689  0.63080744  1
  C  C249  1  0.26864537  0.15732716  0.62422537  1
  C  C250  1  0.29789326  0.02971702  0.63817906  1
  C  C251  1  0.49078266  0.42527852  0.52987886  1
  H  H252  1  0.01066428  0.37378511  0.74984034  1
  C  C253  1  0.31883176  0.35841638  0.64165097  1
  H  H254  1  0.37310795  0.25502831  0.60021579  1
  H  H255  1  0.46154400  0.43778979  0.72457338  1
  H  H256  1  0.40223247  0.25893170  0.53571028  1
  C  C257  1  0.00958466  0.34045032  0.53896257  1
  C  C258  1  0.29899104  0.10547290  0.64584145  1
  O  O259  1  0.32085676  0.29669032  0.65872193  1
  C  C260  1  0.37278117  0.36954407  0.52734126  1
  C  C261  1  0.38533126  0.30632620  0.54888027  1
  O  O262  1  0.46231824  0.30629772  0.74153516  1
  C  C263  1  0.26181677  0.01127600  0.60708004  1
  O  O264  1  0.01175731  0.23583223  0.67328627  1
  H  H265  1  0.43835742  0.47664938  0.63638611  1
  O  O266  1  0.14277876  0.22595904  0.73953055  1
  C  C267  1  0.36533318  0.30296887  0.58502858  1
  C  C268  1  0.32783203  0.42512533  0.58172156  1
  H  H269  1  0.32335601  0.12657944  0.66933421  1
  H  H270  1  0.08712862  0.32130162  0.56826631  1
  O  O271  1  0.48406226  0.33822968  0.58712706  1
  O  O272  1  0.13687787  0.49657612  0.70532237  1
  Zn  Zn273  1  0.27971335  0.28913511  0.71041183  1
  C  C274  1  0.17474254  0.10777994  0.72811563  1
  C  C275  1  0.33890565  0.36190350  0.60261103  1
  C  C276  1  0.34655089  0.42906857  0.54610176  1
  C  C277  1  0.02788008  0.06387952  0.57635489  1
  H  H278  1  0.40785368  0.07307399  0.65761875  1
  O  O279  1  0.23511416  0.37317709  0.72613123  1
  H  H280  1  0.13012542  0.43677995  0.53809498  1
  H  H281  1  0.34103730  0.48235837  0.53235130  1
  C  C282  1  0.16818634  0.18530243  0.71749366  1
  H  H283  1  0.30741134  0.47398472  0.59544236  1
  H  H284  1  0.30852278  0.04903383  0.51905592  1
  O  O285  1  0.10220932  0.42073858  0.74523616  1
  O  O286  1  0.30217415  0.20384871  0.74453979  1
  C  C287  1  0.00084526  0.47129592  0.65906483  1
  C  C288  1  0.26905370  0.01857344  0.51357765  1
  Zn  Zn289  1  0.16758707  0.33787983  0.74895639  1
  C  C290  1  0.05205593  0.45609935  0.50827273  1
  C  C291  1  0.17074451  0.00955729  0.50054988  1
  C  C292  1  0.22002183  0.05019174  0.50074122  1
  C  C293  1  0.21682680  0.48419819  0.50279759  1
  C  C294  1  0.18870956  0.01619146  0.96817841  1
  C  C295  1  0.18250119  0.03756459  0.90258331  1
  C  C296  1  0.03219900  0.11716477  0.92160514  1
  C  C297  1  0.12030734  0.28922849  0.93323832  1
  O  O298  1  0.17081954  0.33950133  0.81108255  1
  H  H299  1  0.17500087  0.37738757  0.91358674  1
  C  C300  1  0.13425146  0.34556492  0.90918458  1
  C  C301  1  0.09955002  0.36057804  0.87783081  1
  H  H302  1  0.11419619  0.40166062  0.85807812  1
  C  C303  1  0.07120460  0.15719084  0.98261707  1
  C  C304  1  0.47229062  0.03643943  0.94359221  1
  C  C305  1  0.16824873  0.05874904  0.93845069  1
  H  H306  1  0.18096595  0.23596215  0.85648883  1
  C  C307  1  0.20934046  0.37328672  0.82780159  1
  H  H308  1  0.14892074  0.27541830  0.95556310  1
  C  C309  1  0.00831269  0.32397002  0.83935070  1
  C  C310  1  0.21452393  0.26185082  0.86955301  1
  H  H311  1  0.14055611  0.10433635  0.94508584  1
  O  O312  1  0.22990405  0.43186584  0.81444772  1
  H  H313  1  0.24660089  0.01544934  0.81712358  1
  C  C314  1  0.23452390  0.33241485  0.85882334  1
  C  C315  1  0.29199799  0.12629601  0.94829018  1
  C  C316  1  0.02819735  0.03554309  0.97710786  1
  C  C317  1  0.48160838  0.27486992  0.86007884  1
  H  H318  1  0.30095131  0.03721598  0.98483616  1
  O  O319  1  0.22236720  0.01848764  0.83813130  1
  C  C320  1  0.00146088  0.04285270  0.82246723  1
  O  O321  1  0.49313340  0.25587679  0.82816758  1
  H  H322  1  0.01949188  0.13171331  0.89328189  1
  C  C323  1  0.30461308  0.20393535  0.94533448  1
  H  H324  1  0.07865010  0.48329517  0.80798172  1
  C  C325  1  0.03565718  0.26128124  0.89683544  1
  H  H326  1  0.12748927  0.12492210  0.77714883  1
  C  C327  1  0.07191546  0.24446049  0.92674855  1
  C  C328  1  0.30991983  0.09539154  0.98078836  1
  Zn  Zn329  1  0.00059798  0.45633132  0.93274195  1
  H  H330  1  0.29846104  0.41819862  0.86744400  1
  H  H331  1  0.34201050  0.26992454  0.83866225  1
  Zn  Zn332  1  0.27281937  0.44561141  0.76191091  1
  C  C333  1  0.32202221  0.22441793  0.77514060  1
  C  C334  1  0.03411634  0.35079230  0.80676583  1
  C  C335  1  0.36819425  0.09486530  0.86834207  1
  C  C336  1  0.34257395  0.20821445  0.84080413  1
  C  C337  1  0.14996644  0.08621493  0.76169796  1
  C  C338  1  0.23462790  0.22516034  0.89900380  1
  H  H339  1  0.21697573  0.17103693  0.90599954  1
  C  C340  1  0.33343335  0.17316791  0.80738729  1
  C  C341  1  0.28089238  0.36563571  0.87822106  1
  H  H342  1  0.47934527  0.24251009  0.98472310  1
  H  H343  1  0.07741739  0.36897039  0.80564734  1
  H  H344  1  0.32931462  0.35526430  0.92806016  1
  C  C345  1  0.15392853  0.01463962  0.77213286  1
  H  H346  1  0.35848774  0.29399151  0.96371810  1
  C  C347  1  0.35359313  0.05737665  0.83472970  1
  H  H348  1  0.19463433  0.24931879  0.99647938  1
  C  C349  1  0.39448510  0.04951014  0.89928584  1
  H  H350  1  0.37153905  0.20041017  0.89801041  1
  C  C351  1  0.28090502  0.25590738  0.91764266  1
  H  H352  1  0.16820243  0.06937164  0.87875306  1
  C  C353  1  0.36150629  0.17188541  0.87290914  1
  C  C354  1  0.44780630  0.07386104  0.91421847  1
  C  C355  1  0.39761004  0.47362231  0.77227978  1
  O  O356  1  0.01392193  0.39380042  0.97886772  1
  O  O357  1  0.41080066  0.43712045  0.80070464  1
  H  H358  1  0.32010254  0.06329437  0.78044696  1
  C  C359  1  0.34440486  0.23824614  0.96882815  1
  O  O360  1  0.44197883  0.31697966  0.86476639  1
  C  C361  1  0.29822227  0.32978071  0.91000362  1
  Zn  Zn362  1  0.42638266  0.32213284  0.79566518  1
  O  O363  1  0.34150235  0.28714018  0.77753962  1
  C  C364  1  0.33357207  0.09520308  0.80396618  1
  H  H365  1  0.27342590  0.09489432  0.92537903  1
  C  C366  1  0.05072657  0.31657195  0.87187103  1
  C  C367  1  0.05959279  0.17056586  0.94482257  1
  H  H368  1  0.44891560  0.29890744  0.92172785  1
  H  H369  1  0.46992513  0.11792730  0.89968090  1
  C  C370  1  0.01448430  0.05464381  0.93966203  1
  C  C371  1  0.05566341  0.09119509  0.99762874  1
  C  C372  1  0.48495703  0.26164856  0.92530574  1
  H  H373  1  0.09214322  0.20136297  0.99933947  1
  O  O374  1  0.27712082  0.39715216  0.99631853  1
  O  O375  1  0.36101763  0.45182890  0.75035719  1
  Zn  Zn376  1  0.12740511  0.70802741  0.02523445  1
  C  C377  1  0.02516814  0.86386711  0.10101554  1
  C  C378  1  0.03512561  0.76266401  0.20027151  1
  C  C379  1  0.07087175  0.82782964  0.11807840  1
  C  C380  1  0.16083348  0.56139738  0.19396997  1
  C  C381  1  0.08245521  0.75129975  0.10168353  1
  O  O382  1  0.06594389  0.73052853  0.07151527  1
  O  O383  1  0.10705357  0.70447403  0.12078637  1
  C  C384  1  0.01386880  0.93623222  0.10910951  1
  C  C385  1  0.09302996  0.76238031  0.21281264  1
  Zn  Zn386  1  0.11816194  0.65316770  0.21587546  1
  H  H387  1  0.00191899  0.66848856  0.02306458  1
  O  O388  1  0.18247160  0.64302412  0.05280532  1
  C  C389  1  0.10325344  0.85996401  0.14573140  1
  H  H390  1  0.13516283  0.83084390  0.16093861  1
  H  H391  1  0.03011162  0.88779625  0.19232480  1
  C  C392  1  0.31394145  0.68776713  0.01761621  1
  O  O393  1  0.00971318  0.95112459  0.02578586  1
  C  C394  1  0.09452996  0.93286443  0.15434011  1
  H  H395  1  0.11830677  0.97870682  0.08983064  1
  O  O396  1  0.45006431  0.58501891  0.05154736  1
  H  H397  1  0.00035334  0.83527793  0.07756453  1
  H  H398  1  0.48400154  0.95358185  0.06444908  1
  C  C399  1  0.26314849  0.95264732  0.19153014  1
  C  C400  1  0.40433249  0.98079247  0.22671363  1
  O  O401  1  0.47899268  0.80329163  0.22397556  1
  C  C402  1  0.05128004  0.97214474  0.13557121  1
  H  H403  1  0.12312423  0.95933569  0.17505607  1
  H  H404  1  0.48761965  0.54563556  0.20714615  1
  C  C405  1  0.34933787  0.81798907  0.02245435  1
  C  C406  1  0.11887742  0.53814386  0.21448795  1
  C  C407  1  0.46025930  0.63587717  0.03349765  1
  Zn  Zn408  1  0.12637853  0.60822234  0.08776961  1
  C  C409  1  0.08770199  0.95707378  0.24218692  1
  C  C410  1  0.14347958  0.97549888  0.23175211  1
  O  O411  1  0.42012188  0.94564501  0.19987203  1
  Zn  Zn412  1  0.24904608  0.65910569  0.08740844  1
  O  O413  1  0.31699875  0.68998641  0.05296350  1
  H  H414  1  0.42149280  0.78132846  0.09659302  1
  O  O415  1  0.22220998  0.75886606  0.11186373  1
  H  H416  1  0.21938677  0.88637393  0.09271009  1
  C  C417  1  0.23492277  0.90539586  0.12053498  1
  H  H418  1  0.27822302  0.96864340  0.21771463  1
  H  H419  1  0.14569056  0.93152615  0.03052827  1
  H  H420  1  0.35146489  0.81360344  0.05306769  1
  O  O421  1  0.33404699  0.78613360  0.21814102  1
  C  C422  1  0.40563815  0.87629783  0.11077390  1
  H  H423  1  0.26512266  0.83981310  0.20805012  1
  C  C424  1  0.23147100  0.77794221  0.14521386  1
  O  O425  1  0.26896398  0.56441967  0.11795920  1
  C  C426  1  0.25423362  0.87984618  0.18646955  1
  O  O427  1  0.36966946  0.85040159  0.13141183  1
  C  C428  1  0.48207587  0.62273367  0.15986889  1
  O  O429  1  0.23553260  0.73204530  0.17015714  1
  O  O430  1  0.03488390  0.66573988  0.00673079  1
  C  C431  1  0.29590311  0.54620383  0.14601610  1
  C  C432  1  0.43140701  0.66192035  0.17537225  1
  C  C433  1  0.23801481  0.85681860  0.15105030  1
  Zn  Zn434  1  0.40039868  0.82510845  0.18961691  1
  O  O435  1  0.42727178  0.72197250  0.16163357  1
  O  O436  1  0.13048225  0.80312206  0.22120261  1
  O  O437  1  0.28808053  0.57101147  0.17710155  1
  Zn  Zn438  1  0.31272794  0.68319467  0.20388266  1
  O  O439  1  0.43651783  0.82923614  0.08852402  1
  C  C440  1  0.46047962  0.98728588  0.08503398  1
  O  O441  1  0.39380569  0.63119491  0.19576976  1
  H  H442  1  0.16810509  0.93278058  0.21580154  1
  C  C443  1  0.49380958  0.70123815  0.02109588  1
  H  H444  1  0.34516433  0.97855453  0.14374142  1
  C  C445  1  0.41733811  0.95525412  0.10795807  1
  C  C446  1  0.33002321  0.75984790  0.00047164  1
  H  H447  1  0.37971367  0.93126336  0.02472049  1
  Zn  Zn448  1  0.21011913  0.57194605  0.01228055  1
  H  H449  1  0.06997947  0.90117172  0.23514807  1
  C  C450  1  0.24612516  0.97860020  0.12615867  1
  C  C451  1  0.36355646  0.88455458  0.00710996  1
  O  O452  1  0.29743786  0.63215986  0.00149468  1
  H  H453  1  0.01855039  0.63980110  0.19858200  1
  C  C454  1  0.00795247  0.83167860  0.18981975  1
  H  H455  1  0.01453568  0.50675444  0.18685514  1
  H  H456  1  0.19485420  0.53405832  0.17803223  1
  C  C457  1  0.00177270  0.69593854  0.19610983  1
  Zn  Zn458  1  0.49884782  0.53605401  0.12431550  1
  H  H459  1  0.49700624  0.69857570  0.11482754  1
  H  H460  1  0.01985260  0.53020473  0.12285768  1
  C  C461  1  0.15374165  0.98930639  0.03612379  1
  C  C462  1  0.09464146  0.68227249  0.42616839  1
  O  O463  1  0.12481089  0.63980673  0.44388227  1
  Zn  Zn464  1  0.11623990  0.58046360  0.36865837  1
  C  C465  1  0.06026455  0.73902161  0.44689546  1
  H  H466  1  0.19895696  0.56791175  0.40502618  1
  O  O467  1  0.03367472  0.66795641  0.29892055  1
  O  O468  1  0.09420513  0.68104059  0.39190817  1
  C  C469  1  0.02176870  0.78545823  0.42942240  1
  C  C470  1  0.01641370  0.72871415  0.28507354  1
  H  H471  1  0.27340847  0.50404381  0.34120238  1
  H  H472  1  0.42708479  0.51213271  0.42345809  1
  O  O473  1  0.21041681  0.88049902  0.28566592  1
  O  O474  1  0.44285941  0.88480501  0.48148290  1
  C  C475  1  0.31812891  0.97225900  0.33884547  1
  Zn  Zn476  1  0.36153356  0.83222931  0.26291134  1
  C  C477  1  0.42861070  0.56274965  0.30933734  1
  C  C478  1  0.21613449  0.51532748  0.39856600  1
  C  C479  1  0.26639373  0.96206377  0.31901140  1
  C  C480  1  0.38013223  0.58919327  0.29170849  1
  C  C481  1  0.31689396  0.52227918  0.33499529  1
  C  C482  1  0.07230828  0.74872214  0.48472796  1
  H  H483  1  0.28936154  0.52795980  0.43597467  1
  H  H484  1  0.47069237  0.57911290  0.29927090  1
  C  C485  1  0.00771858  0.99804151  0.33616516  1
  H  H486  1  0.05884483  0.75572922  0.27983097  1
  C  C487  1  0.47648084  0.83569077  0.47704696  1
  C  C488  1  0.27727530  0.60066969  0.28182119  1
  O  O489  1  0.22943919  0.57186865  0.28508898  1
  H  H490  1  0.10606472  0.71861956  0.49885914  1
  C  C491  1  0.42171041  0.52903543  0.34496829  1
  O  O492  1  0.29653424  0.82854550  0.30756971  1
  C  C493  1  0.25191950  0.89036924  0.30265648  1
  H  H494  1  0.27074340  0.79099112  0.30033803  1
  H  H495  1  0.01591665  0.53928896  0.25240953  1
  H  H496  1  0.38214197  0.62444675  0.26680409  1
  C  C497  1  0.46976002  0.51034050  0.40915946  1
  H  H498  1  0.01546094  0.77896955  0.39902307  1
  Zn  Zn499  1  0.07375038  0.54880611  0.48094415  1
  O  O500  1  0.28496062  0.65027382  0.25938556  1
  C  C501  1  0.32626373  0.56831424  0.30452135  1
  H  H502  1  0.08071624  0.94152939  0.31058495  1
  H  H503  1  0.34280798  0.92528990  0.35117357  1
  O  O504  1  0.44427026  0.80248929  0.27995526  1
  H  H505  1  0.05563638  0.95119468  0.49400283  1
  C  C506  1  0.00114033  0.84126267  0.48904716  1
  O  O507  1  0.38049701  0.94861696  0.25339736  1
  C  C508  1  0.06456721  0.96596617  0.33694932  1
  Zn  Zn509  1  0.03867081  0.97938574  0.39028779  1
  C  C510  1  0.47206922  0.51738032  0.37074273  1
  C  C511  1  0.36591091  0.50817830  0.35590925  1
  H  H512  1  0.46536908  0.52285552  0.49911722  1
  C  C513  1  0.48371450  0.99701167  0.36486274  1
  C  C514  1  0.47808450  0.77639846  0.25551313  1
  C  C515  1  0.13203587  0.81090640  0.60239727  1
  C  C516  1  0.07123640  0.82916247  0.60560035  1
  C  C517  1  0.14148066  0.73808155  0.58405000  1
  C  C518  1  0.08653985  0.70715471  0.57474710  1
  C  C519  1  0.08671919  0.63370975  0.55121634  1
  C  C520  1  0.18988022  0.69116995  0.58061951  1
  C  C521  1  0.16762576  0.86349442  0.61767512  1
  Zn  Zn522  1  0.24270455  0.81371859  0.60861589  1
  H  H523  1  0.37508765  0.57257444  0.71956242  1
  C  C524  1  0.18535735  0.61666020  0.56725488  1
  H  H525  1  0.22385145  0.58353888  0.56732051  1
  H  H526  1  0.05619991  0.80973419  0.53444804  1
  C  C527  1  0.13806473  0.59150452  0.55438646  1
  C  C528  1  0.24933034  0.70307154  0.59409209  1
  C  C529  1  0.45652670  0.77016923  0.53849589  1
  O  O530  1  0.24321713  0.55872615  0.69254934  1
  H  H531  1  0.18513868  0.85634314  0.69885209  1
  H  H532  1  0.00933360  0.91180377  0.61753271  1
  C  C533  1  0.21714452  0.90159113  0.52089606  1
  C  C534  1  0.04241886  0.76854326  0.58802568  1
  C  C535  1  0.43857331  0.65299833  0.73516180  1
  H  H536  1  0.20883326  0.72245396  0.71111919  1
  H  H537  1  0.21527856  0.84444941  0.53100412  1
  H  H538  1  0.46005632  0.86234271  0.70335194  1
  C  C539  1  0.49220513  0.64531830  0.54741260  1
  C  C540  1  0.04405585  0.60888929  0.52722742  1
  C  C541  1  0.15193816  0.92866655  0.63604909  1
  C  C542  1  0.33096552  0.91177905  0.66612703  1
  H  H543  1  0.30099576  0.63560717  0.65464046  1
  H  H544  1  0.43552227  0.81950552  0.54761664  1
  C  C545  1  0.09164108  0.94139220  0.63738045  1
  C  C546  1  0.05086970  0.89584802  0.62072881  1
  H  H547  1  0.41509960  0.58839621  0.59597779  1
  H  H548  1  0.34364455  0.75489374  0.63982325  1
  C  C549  1  0.46307852  0.70914130  0.56017591  1
  C  C550  1  0.37092510  0.86775150  0.68457613  1
  H  H551  1  0.23520140  0.95640131  0.69745984  1
  H  H552  1  0.07488680  0.99354152  0.64902525  1
  C  C553  1  0.31547709  0.67374198  0.67650948  1
  C  C554  1  0.18595442  0.83545167  0.72754465  1
  O  O555  1  0.29108076  0.66982921  0.60100019  1
  C  C556  1  0.31415492  0.90935823  0.54357493  1
  C  C557  1  0.46874272  0.50108438  0.61931077  1
  Zn  Zn558  1  0.00685976  0.67532728  0.56527019  1
  H  H559  1  0.25785659  0.95395126  0.59947286  1
  C  C560  1  0.19860152  0.76005902  0.73329987  1
  H  H561  1  0.28541410  0.89620945  0.66475820  1
  C  C562  1  0.33662526  0.74228980  0.66859917  1
  C  C563  1  0.21003544  0.99071607  0.71601388  1
  C  C564  1  0.26458987  0.94633561  0.52308201  1
  C  C565  1  0.45560005  0.55923372  0.59677023  1
  H  H566  1  0.44878002  0.70929266  0.58893323  1
  H  H567  1  0.12887271  0.63075269  0.72040022  1
  C  C568  1  0.42538962  0.89648746  0.69253716  1
  C  C569  1  0.30346309  0.65479725  0.71465045  1
  H  H570  1  0.42220246  0.69534146  0.71795578  1
  H  H571  1  0.03969129  0.91989138  0.54625434  1
  C  C572  1  0.35218018  0.79220506  0.69777852  1
  O  O573  1  0.35665954  0.94989381  0.54735633  1
  C  C574  1  0.34361041  0.76908182  0.73415273  1
  H  H575  1  0.49324850  0.74587626  0.69308755  1
  O  O576  1  0.31193403  0.84611540  0.55361678  1
  C  C577  1  0.26937495  0.58726236  0.71849706  1
  C  C578  1  0.40795165  0.58764206  0.73832487  1
  H  H579  1  0.14072841  0.53388013  0.54835532  1
  C  C580  1  0.32204687  0.70018800  0.74333339  1
  C  C581  1  0.43696644  0.97081131  0.68397868  1
  C  C582  1  0.04355494  0.80085215  0.50606994  1
  Zn  Zn583  1  0.44003034  0.96065406  0.52876597  1
  H  H584  1  0.00060359  0.97327299  0.73306363  1
  H  H585  1  0.18290256  0.96945625  0.64733198  1
  C  C586  1  0.34271499  0.98698006  0.65845698  1
  C  C587  1  0.18602651  0.96528488  0.74988681  1
  H  H588  1  0.47963406  0.98517754  0.69212820  1
  O  O589  1  0.25384293  0.51503862  0.50471946  1
  C  C590  1  0.11336951  0.61902690  0.74882376  1
  H  H591  1  0.13035515  0.90106675  0.50851816  1
  C  C592  1  0.48193012  0.77222768  0.50306671  1
  C  C593  1  0.16897235  0.93524215  0.50891531  1
  H  H594  1  0.17829861  0.81819037  0.92820719  1
  C  C595  1  0.18952481  0.80602424  0.86954283  1
  C  C596  1  0.18685449  0.78329387  0.90664578  1
  H  H597  1  0.18416961  0.86232216  0.86472050  1
  C  C598  1  0.18577366  0.86280277  0.79611402  1
  C  C599  1  0.18914176  0.70809600  0.91554703  1
  C  C600  1  0.20062137  0.78912659  0.80037619  1
  C  C601  1  0.20039180  0.75799003  0.83958888  1
  H  H602  1  0.13287747  0.99736326  0.79818839  1
  O  O603  1  0.27034520  0.56108859  0.75120246  1
  C  C604  1  0.20442809  0.66002060  0.88618146  1
  C  C605  1  0.08555698  0.66814446  0.80880784  1
  C  C606  1  0.20853630  0.73797425  0.76991510  1
  C  C607  1  0.18296383  0.68044617  0.95333882  1
  H  H608  1  0.07608121  0.80398851  0.79004571  1
  C  C609  1  0.06804328  0.59649040  0.81827376  1
  O  O610  1  0.18907725  0.61426214  0.95936899  1
  C  C611  1  0.22357500  0.95655439  0.96183983  1
  C  C612  1  0.21050129  0.68354165  0.84927686  1
  O  O613  1  0.01504296  0.69170901  0.94645376  1
  C  C614  1  0.07436330  0.79676828  0.89519746  1
  H  H615  1  0.21326984  0.64447521  0.82743328  1
  H  H616  1  0.18239986  0.90208378  0.81819063  1
  H  H617  1  0.23973969  0.92731898  0.98552123  1
  H  H618  1  0.46543439  0.94827777  0.98164092  1
  C  C619  1  0.44952520  0.76871067  0.95577532  1
  C  C620  1  0.10153410  0.54797363  0.76065267  1
  C  C621  1  0.42133639  0.71590833  0.93113123  1
  H  H622  1  0.21623541  0.60259948  0.89040160  1
  C  C623  1  0.38059978  0.60605878  0.89574472  1
  C  C624  1  0.36802344  0.99047648  0.91730279  1
  H  H625  1  0.45155861  0.82201339  0.94496608  1
  C  C626  1  0.08342729  0.53568175  0.79624508  1
  H  H627  1  0.32434238  0.97562029  0.90676194  1
  C  C628  1  0.44350351  0.97943523  0.96187949  1
  C  C629  1  0.48322043  0.75877325  0.99106879  1
  C  C630  1  0.07263348  0.86585630  0.84062629  1
  H  H631  1  0.31961598  0.68594363  0.77342695  1
  C  C632  1  0.33322906  0.83356751  0.94559606  1
  H  H633  1  0.21778475  0.68179873  0.77875913  1
  C  C634  1  0.05663784  0.93097804  0.81870699  1
  H  H635  1  0.08107424  0.79239612  0.92444669  1
  C  C636  1  0.07574316  0.73095380  0.83574244  1
  H  H637  1  0.04772837  0.99845774  0.86994768  1
  C  C638  1  0.00135695  0.70562137  0.97652345  1
  C  C639  1  0.47255732  0.55476612  0.79126884  1
  C  C640  1  0.04934454  0.92942385  0.77833685  1
  H  H641  1  0.07814958  0.91813705  0.89715733  1
  H  H642  1  0.35532410  0.99506748  0.83663610  1
  C  C643  1  0.46684736  0.78793398  0.87488680  1
  C  C644  1  0.24089483  0.93341704  0.92698344  1
  C  C645  1  0.10891707  0.67805961  0.77340782  1
  H  H646  1  0.05139383  0.58602833  0.84739888  1
  H  H647  1  0.11989867  0.73432834  0.76569906  1
  C  C648  1  0.07663918  0.86865693  0.88096122  1
  O  O649  1  0.17007020  0.72727603  0.97840815  1
  Zn  Zn650  1  0.39705840  0.71786804  0.87623319  1
  C  C651  1  0.31636191  0.76861509  0.96252682  1
  H  H652  1  0.06149646  0.68230679  0.89138501  1
  C  C653  1  0.35993973  0.89061893  0.96787960  1
  O  O654  1  0.27562305  0.91896339  0.85285272  1
  H  H655  1  0.33157553  0.83759790  0.91504736  1
  H  H656  1  0.41697681  0.88976069  0.88581386  1
  C  C657  1  0.39848949  0.64207266  0.92850882  1
  H  H658  1  0.30009551  0.72372028  0.94582930  1
  C  C659  1  0.38820739  0.95494206  0.94979615  1
  C  C660  1  0.42986516  0.54211303  0.76590901  1
  O  O661  1  0.36774526  0.55457380  0.87803867  1
  H  H662  1  0.27000209  0.88802643  0.92371275  1
  C  C663  1  0.07852858  0.80201603  0.82016671  1
  H  H664  1  0.49192761  0.63578801  0.93612923  1
  C  C665  1  0.06980227  0.73112683  0.87480147  1
  C  C666  1  0.18592434  0.88461075  0.75750484  1
  C  C667  1  0.45833230  0.86374286  0.87873374  1
  Zn  Zn668  1  0.42545129  0.66680865  0.98284809  1
  C  C669  1  0.01151229  0.96603023  0.99454311  1
  C  C670  1  0.22102134  0.97796859  0.89953964  1
  C  C671  1  0.03761245  0.99089666  0.84083373  1
  H  H672  1  0.06672209  0.88464632  0.76165757  1
  C  C673  1  0.24608880  0.96651593  0.86279871  1
  C  C674  1  0.48829480  0.66528405  0.75530707  1
  H  H675  1  0.01412263  0.65601281  0.77933678  1
  H  H676  1  0.48964950  0.63960291  0.86926896  1
  H  H677  1  0.48680829  0.51579169  0.81274120  1
  C  C678  1  0.01316202  0.97888604  0.76230793  1
  H  H679  1  0.35210725  0.80414188  0.75727587  1
  H  H680  1  0.54968941  0.13577337  0.12951349  1
  H  H681  1  0.59901178  0.25393448  0.13557683  1
  C  C682  1  0.55196978  0.25290912  0.13275832  1
  C  C683  1  0.52414398  0.18487482  0.12975243  1
  H  H684  1  0.63572148  0.10533087  0.11325617  1
  O  O685  1  0.61539104  0.11835089  0.18300857  1
  O  O686  1  0.90329611  0.05362464  0.06096425  1
  C  C687  1  0.98920903  0.30125402  0.02345664  1
  H  H688  1  0.54440308  0.37026798  0.13645429  1
  C  C689  1  0.68246546  0.20738839  0.05249432  1
  O  O690  1  0.59101328  0.32949331  0.06927573  1
  C  C691  1  0.55165711  0.36375234  0.05407879  1
  Zn  Zn692  1  0.65641434  0.43313689  0.05993536  1
  C  C693  1  0.52195418  0.31906007  0.13177363  1
  H  H694  1  0.63960554  0.22665752  0.05476838  1
  H  H695  1  0.53010622  0.21985595  0.06204831  1
  O  O696  1  0.57777857  0.13249280  0.02572426  1
  O  O697  1  0.56979516  0.02601929  0.21079400  1
  C  C698  1  0.97077250  0.22640416  0.02480470  1
  C  C699  1  0.61290246  0.05363645  0.11210523  1
  C  C700  1  0.60206938  0.01945923  0.07867817  1
  O  O701  1  0.56279703  0.42922355  0.04743395  1
  C  C702  1  0.59619335  0.06021670  0.18068040  1
  O  O703  1  0.90197658  0.02457173  0.20452607  1
  H  H704  1  0.61355350  0.04473989  0.05237095  1
  C  C705  1  0.76722977  0.18304366  0.01655804  1
  H  H706  1  0.82146270  0.02733833  0.11428409  1
  H  H707  1  0.69678227  0.21819276  0.11144854  1
  C  C708  1  0.71444655  0.20441550  0.08581376  1
  C  C709  1  0.77640178  0.17211411  0.15315709  1
  C  C710  1  0.88439249  0.00945740  0.03919286  1
  C  C711  1  0.89280357  0.16316941  0.15563375  1
  H  H712  1  0.84007381  0.14117249  0.04913225  1
  H  H713  1  0.85214746  0.08207906  0.00368493  1
  C  C714  1  0.73804773  0.42588475  0.19906595  1
  H  H715  1  0.65551773  0.32117072  0.01708583  1
  H  H716  1  0.93871872  0.15645503  0.15440074  1
  H  H717  1  0.77757807  0.16545210  0.21265536  1
  H  H718  1  0.67162007  0.33177475  0.17065609  1
  C  C719  1  0.71083729  0.20568139  0.01727256  1
  H  H720  1  0.94528424  0.27798112  0.14039502  1
  C  C721  1  0.58980296  0.02302735  0.14350737  1
  C  C722  1  0.65919349  0.45614019  0.24128142  1
  C  C723  1  0.85897945  0.14710754  0.18780018  1
  C  C724  1  0.77131978  0.17723793  0.08493197  1
  C  C725  1  0.86658359  0.16924146  0.12118614  1
  Zn  Zn726  1  0.84000612  0.35177655  0.17274652  1
  O  O727  1  0.68974333  0.35089426  0.01890972  1
  H  H728  1  0.58089322  0.05220142  0.23314879  1
  Zn  Zn729  1  0.92693636  0.15950741  0.22862170  1
  C  C730  1  0.80089094  0.16314615  0.18710568  1
  C  C731  1  0.67752554  0.41299843  0.21178952  1
  C  C732  1  0.80638796  0.17568891  0.11983153  1
  O  O733  1  0.75750368  0.38197158  0.17454836  1
  C  C734  1  0.87157778  0.07576203  0.20795478  1
  H  H735  1  0.89137225  0.17626575  0.09689033  1
  H  H736  1  0.73134978  0.17837271  0.15394974  1
  C  C737  1  0.79637099  0.16697919  0.05073196  1
  H  H738  1  0.56879637  0.30755990  0.18806155  1
  C  C739  1  0.91663285  0.31449712  0.15644735  1
  C  C740  1  0.92584792  0.36247959  0.18062102  1
  H  H741  1  0.52077143  0.26314579  0.23317408  1
  H  H742  1  0.57747695  0.47694799  0.18563328  1
  H  H743  1  0.79033954  0.37059788  0.01220659  1
  C  C744  1  0.59322092  0.34673052  0.20479882  1
  H  H745  1  0.96265673  0.38131830  0.19336563  1
  C  C746  1  0.64708068  0.35788142  0.19265746  1
  H  H747  1  0.74116162  0.02754125  0.01010813  1
  H  H748  1  0.95452345  0.20059125  0.00079975  1
  C  C749  1  0.97767134  0.19298777  0.05888054  1
  C  C750  1  0.56795683  0.39171634  0.23309413  1
  O  O751  1  0.82456370  0.04566138  0.24329580  1
  O  O752  1  0.76725670  0.47403668  0.21212468  1
  H  H753  1  0.96335105  0.13559627  0.05998632  1
  O  O754  1  0.65154423  0.44812009  0.11971100  1
  H  H755  1  0.50270681  0.08649636  0.06731660  1
  C  C756  1  0.50370843  0.38438983  0.24092822  1
  Zn  Zn757  1  0.70584518  0.26966862  0.44758289  1
  C  C758  1  0.64340935  0.32011449  0.37271927  1
  O  O759  1  0.67506056  0.27875998  0.39050587  1
  O  O760  1  0.66014143  0.37469507  0.35598482  1
  H  H761  1  0.65485184  0.08942071  0.39729256  1
  C  C762  1  0.99557198  0.44209774  0.49920119  1
  C  C763  1  0.58323211  0.29539728  0.36527452  1
  H  H764  1  0.60864357  0.48766281  0.43188995  1
  C  C765  1  0.57000951  0.49638608  0.41579887  1
  O  O766  1  0.76308792  0.49155762  0.47668517  1
  H  H767  1  0.73510561  0.02933814  0.44967976  1
  O  O768  1  0.98232556  0.45761559  0.39354818  1
  O  O769  1  0.74583221  0.15415546  0.46475148  1
  H  H770  1  0.57181867  0.40348525  0.33534297  1
  H  H771  1  0.58934404  0.19388311  0.39580966  1
  H  H772  1  0.94467519  0.08044719  0.35568672  1
  H  H773  1  0.69478997  0.43775633  0.33853153  1
  O  O774  1  0.63093466  0.20740411  0.45027589  1
  O  O775  1  0.88908044  0.16548337  0.35437031  1
  O  O776  1  0.65286355  0.02391206  0.27848917  1
  C  C777  1  0.80694272  0.07228260  0.35223419  1
  C  C778  1  0.55446309  0.34953275  0.34505982  1
  C  C779  1  0.99645779  0.31909960  0.42849849  1
  C  C780  1  0.82294614  0.07033177  0.45326951  1
  H  H781  1  0.97026469  0.21329478  0.44484286  1
  C  C782  1  0.62378811  0.07553137  0.45573810  1
  H  H783  1  0.70731027  0.43085568  0.45908303  1
  H  H784  1  0.95983307  0.42382912  0.26747987  1
  C  C785  1  0.83459326  0.43483008  0.38035005  1
  C  C786  1  0.51515492  0.48799118  0.43213433  1
  H  H787  1  0.91044779  0.11122217  0.45635584  1
  Zn  Zn788  1  0.85321864  0.38807117  0.42990521  1
  C  C789  1  0.61493686  0.02686134  0.48573522  1
  C  C790  1  0.63715056  0.05140433  0.41927636  1
  H  H791  1  0.97166066  0.15923631  0.48928297  1
  O  O792  1  0.83006424  0.39584071  0.35340893  1
  O  O793  1  0.94107400  0.29844813  0.27288216  1
  C  C794  1  0.52182411  0.44814840  0.46887986  1
  C  C795  1  0.54899103  0.37963297  0.46642606  1
  C  C796  1  0.50491638  0.21391097  0.36913516  1
  H  H797  1  0.56452268  0.35702778  0.43855529  1
  C  C798  1  0.56059615  0.23106028  0.37964093  1
  O  O799  1  0.82958314  0.19417564  0.47317919  1
  O  O800  1  0.71648504  0.48541951  0.32778694  1
  C  C801  1  0.98590349  0.05264319  0.36203044  1
  O  O802  1  0.75930068  0.06461238  0.36228394  1
  O  O803  1  0.88609240  0.38379441  0.48573229  1
  C  C804  1  0.79746937  0.14169582  0.46456437  1
  Zn  Zn805  1  0.83424099  0.05636540  0.29668400  1
  C  C806  1  0.85660582  0.12029465  0.34618332  1
  C  C807  1  0.78186122  0.01605473  0.44687605  1
  H  H808  1  0.96818980  0.02453807  0.49857146  1
  O  O809  1  0.77562716  0.31177012  0.42760132  1
  O  O810  1  0.67542036  0.40349218  0.44700584  1
  C  C811  1  0.88216653  0.06287619  0.45036973  1
  H  H812  1  0.96007130  0.33023613  0.41194391  1
  H  H813  1  0.76441250  0.30900389  0.40144504  1
  H  H814  1  0.69682664  0.37753706  0.42581681  1
  C  C815  1  0.61898388  0.15286597  0.46876446  1
  H  H816  1  0.97019591  0.47686678  0.47912991  1
  H  H817  1  0.58594399  0.47660744  0.27528082  1
  C  C818  1  0.60101942  0.44262811  0.25242422  1
  H  H819  1  0.50398398  0.01454546  0.28598217  1
  C  C820  1  0.98698534  0.28931991  0.25986803  1
  H  H821  1  0.57636233  0.28907247  0.49791003  1
  C  C822  1  0.55095622  0.33707565  0.49738399  1
  H  H823  1  0.68453958  0.49957969  0.25412392  1
  C  C824  1  0.72617677  0.46516183  0.61552389  1
  C  C825  1  0.73358574  0.39455726  0.59945744  1
  C  C826  1  0.63595272  0.38467527  0.58269252  1
  C  C827  1  0.68896175  0.35399974  0.58204623  1
  Zn  Zn828  1  0.53033955  0.15388635  0.53135200  1
  C  C829  1  0.62634135  0.45628458  0.59732617  1
  C  C830  1  0.59199181  0.37069853  0.69530241  1
  H  H831  1  0.59879107  0.35237210  0.57095965  1
  C  C832  1  0.61552506  0.42994593  0.67806648  1
  H  H833  1  0.65237427  0.42585037  0.66069409  1
  H  H834  1  0.99276285  0.40355510  0.59350827  1
  H  H835  1  0.72952846  0.02729484  0.52172387  1
  H  H836  1  0.98414329  0.29171327  0.54717266  1
  O  O837  1  0.71617610  0.09671378  0.73816000  1
  C  C838  1  0.50569801  0.43559162  0.71392012  1
  C  C839  1  0.97349110  0.11048085  0.64194935  1
  O  O840  1  0.89681857  0.29322001  0.52689777  1
  H  H841  1  0.69618570  0.30000200  0.56895888  1
  O  O842  1  0.89320316  0.26376631  0.63690946  1
  H  H843  1  0.83627118  0.46930333  0.53687886  1
  C  C844  1  0.58233671  0.49443976  0.67864987  1
  O  O845  1  0.53378780  0.24811023  0.56793454  1
  C  C846  1  0.79053101  0.04640116  0.59053181  1
  C  C847  1  0.72166349  0.31529695  0.67232701  1
  Zn  Zn848  1  0.78304277  0.30374682  0.71395472  1
  H  H849  1  0.60961052  0.31424578  0.69221160  1
  O  O850  1  0.92511414  0.07798282  0.72948700  1
  C  C851  1  0.80505534  0.10675134  0.64917745  1
  H  H852  1  0.95532914  0.13047056  0.66846220  1
  O  O853  1  0.78944214  0.28947018  0.57823969  1
  C  C854  1  0.79011126  0.36438022  0.59887126  1
  C  C855  1  0.52156184  0.36066984  0.52968200  1
  O  O856  1  0.91237086  0.37586299  0.71793106  1
  O  O857  1  0.85901626  0.21498228  0.68793448  1
  O  O858  1  0.53803535  0.25040990  0.72441717  1
  O  O859  1  0.83089601  0.39159944  0.61023646  1
  C  C860  1  0.95398033  0.04736591  0.62548749  1
  C  C861  1  0.97026312  0.45538035  0.59535935  1
  C  C862  1  0.77824372  0.05157462  0.62872490  1
  C  C863  1  0.53775154  0.37229104  0.71061197  1
  C  C864  1  0.97918185  0.02606970  0.59107013  1
  C  C865  1  0.89590046  0.35502821  0.74877708  1
  C  C866  1  0.56583026  0.48984628  0.59739056  1
  H  H867  1  0.52997401  0.42121654  0.63852301  1
  H  H868  1  0.83710204  0.09485337  0.54146783  1
  Zn  Zn869  1  0.94746101  0.32188203  0.67260645  1
  H  H870  1  0.92369938  0.01039827  0.63742847  1
  H  H871  1  0.71244796  0.19705292  0.66320207  1
  H  H872  1  0.82626784  0.27400262  0.58643965  1
  H  H873  1  0.87850634  0.18926577  0.57888188  1
  H  H874  1  0.79537714  0.11490556  0.67925344  1
  C  C875  1  0.86354388  0.21422711  0.65416930  1
  C  C876  1  0.82711246  0.09807165  0.57118948  1
  H  H877  1  0.93374194  0.45020890  0.53964869  1
  C  C878  1  0.83981774  0.15530442  0.63030655  1
  C  C879  1  0.67055151  0.49496355  0.61409755  1
  C  C880  1  0.85145816  0.15101054  0.59209314  1
  C  C881  1  0.72847236  0.24791452  0.67823226  1
  O  O882  1  0.60560085  0.16418452  0.50235257  1
  H  H883  1  0.58765490  0.04870974  0.63324762  1
  C  C884  1  0.52929626  0.49751843  0.69810320  1
  C  C885  1  0.51000581  0.30450950  0.72582576  1
  H  H886  1  0.69612329  0.34921543  0.65230122  1
  C  C887  1  0.71629891  0.05438240  0.71462580  1
  Zn  Zn888  1  0.81018731  0.27877635  0.51818362  1
  C  C889  1  0.52143929  0.46590448  0.61891439  1
  H  H890  1  0.75564856  0.00454076  0.64346881  1
  O  O891  1  0.56032468  0.06737353  0.56631134  1
  H  H892  1  0.60968772  0.05274542  0.51228115  1
  C  C893  1  0.93742494  0.48208670  0.56574701  1
  H  H894  1  0.76286174  0.49348250  0.62972072  1
  C  C895  1  0.51272376  0.31359476  0.56296065  1
  O  O896  1  0.71485360  0.00825145  0.69257565  1
  C  C897  1  0.54464920  0.00212781  0.56642884  1
  O  O898  1  0.73412581  0.30713357  0.50368044  1
  H  H899  1  0.74341301  0.35865222  0.50321732  1
  C  C900  1  0.91517879  0.34851484  0.50884888  1
  C  C901  1  0.97178210  0.37717843  0.51530116  1
  C  C902  1  0.57251333  0.15443210  0.92422009  1
  C  C903  1  0.55260384  0.17945114  0.95988175  1
  H  H904  1  0.60276271  0.10867079  0.92259726  1
  C  C905  1  0.77105892  0.35470542  0.83244739  1
  C  C906  1  0.73546904  0.42039181  0.82122021  1
  H  H907  1  0.68858644  0.41008768  0.82586262  1
  C  C908  1  0.94437475  0.07723393  0.75962346  1
  O  O909  1  0.77437522  0.29209373  0.84274997  1
  C  C910  1  0.56622548  0.15319194  0.99472641  1
  C  C911  1  0.74523750  0.38165911  0.91958839  1
  C  C912  1  0.69167693  0.35355435  0.97541781  1
  O  O913  1  0.84528140  0.33997735  0.75595386  1
  H  H914  1  0.70219734  0.00861491  0.77381874  1
  C  C915  1  0.98877516  0.33219148  0.98396571  1
  H  H916  1  0.87571688  0.42784828  0.98489000  1
  H  H917  1  0.93258257  0.30245726  0.87132084  1
  H  H918  1  0.75368653  0.26233033  0.95552017  1
  H  H919  1  0.96368092  0.44484869  0.82182793  1
  C  C920  1  0.89158963  0.14318956  0.87969118  1
  C  C921  1  0.93775301  0.34627705  0.78064752  1
  O  O922  1  0.96603418  0.30410001  0.95789597  1
  C  C923  1  0.79916105  0.17103204  0.98098456  1
  C  C924  1  0.94867969  0.31636860  0.84352513  1
  H  H925  1  0.80386490  0.23838096  0.89456517  1
  C  C926  1  0.78461982  0.21661976  0.95077526  1
  C  C927  1  0.79202989  0.38842480  0.98295174  1
  H  H928  1  0.99755447  0.22806651  0.89027335  1
  H  H929  1  0.53964823  0.29601977  0.97091655  1
  C  C930  1  0.51076765  0.24739962  0.96284529  1
  H  H931  1  0.51559646  0.05115869  0.95468903  1
  C  C932  1  0.84089876  0.11453052  0.97897634  1
  C  C933  1  0.79254285  0.41226152  0.90599721  1
  O  O934  1  0.92652314  0.09321210  0.87910398  1
  H  H935  1  0.90453909  0.06740270  0.94033531  1
  H  H936  1  0.70722600  0.36629118  0.90282040  1
  O  O937  1  0.88683890  0.18417113  0.85154853  1
  C  C938  1  0.84056177  0.42990357  0.92769375  1
  H  H939  1  0.86502422  0.32404373  0.81498517  1
  H  H940  1  0.65448227  0.01681088  0.81389103  1
  C  C941  1  0.74445307  0.37473673  0.95980022  1
  Zn  Zn942  1  0.81390045  0.45144545  0.85098394  1
  Zn  Zn943  1  0.92456258  0.14651184  0.80496638  1
  C  C944  1  0.81631165  0.20516661  0.91861479  1
  H  H945  1  0.57549711  0.16637809  0.86440811  1
  C  C946  1  0.91024877  0.32584400  0.81363264  1
  C  C947  1  0.85875373  0.15413103  0.91609738  1
  C  C948  1  0.87198728  0.10866122  0.94594708  1
  C  C949  1  0.55810091  0.18589853  0.89105442  1
  H  H950  1  0.87256439  0.45787988  0.91245811  1
  C  C951  1  0.98732658  0.03782540  0.78280731  1
  H  H952  1  0.99591341  0.09534118  0.83818063  1
  C  C953  1  0.84145192  0.41462591  0.96564970  1
  O  O954  1  0.65074869  0.33672804  0.95915967  1
  O  O955  1  0.70710972  0.01886869  0.96779058  1
  C  C956  1  0.99485417  0.35890890  0.77750377  1
  H  H957  1  0.57679100  0.45215499  0.93223063  1
  C  C958  1  0.96513462  0.48794072  0.88173176  1
  O  O959  1  0.50448647  0.47518004  0.93698814  1
  H  H960  1  0.99250741  0.00847427  0.92487988  1
  C  C961  1  0.95220429  0.48853520  0.84324134  1
  C  C962  1  0.51429641  0.23988563  0.89468574  1
  O  O963  1  0.74085753  0.47270157  0.79534573  1
  H  H964  1  0.66208496  0.48484240  0.96038371  1
  H  H965  1  0.68749356  0.21673594  0.99150425  1
  C  C966  1  0.57026067  0.60854412  0.11352576  1
  C  C967  1  0.60110846  0.76000946  0.12798067  1
  H  H968  1  0.57995275  0.72805796  0.10675102  1
  C  C969  1  0.60754789  0.81051086  0.19061208  1
  C  C970  1  0.57877911  0.76448443  0.16459650  1
  C  C971  1  0.64282469  0.80527062  0.11455266  1
  C  C972  1  0.51447510  0.64879669  0.12898837  1
  O  O973  1  0.58128249  0.62118400  0.07733977  1
  H  H974  1  0.62214080  0.60378586  0.07666756  1
  C  C975  1  0.55551348  0.96012523  0.14118286  1
  C  C976  1  0.87436829  0.54901351  0.13571611  1
  H  H977  1  0.65333921  0.80072485  0.08566490  1
  C  C978  1  0.64841934  0.85563268  0.17630613  1
  C  C979  1  0.66908060  0.85920479  0.13846858  1
  C  C980  1  0.73173281  0.57770303  0.05828142  1
  C  C981  1  0.73794573  0.65229933  0.04359079  1
  C  C982  1  0.71533015  0.80940953  0.03670416  1
  C  C983  1  0.55677544  0.51683804  0.16571898  1
  C  C984  1  0.93292163  0.56428292  0.00210212  1
  C  C985  1  0.57045434  0.91620084  0.03721948  1
  H  H986  1  0.53666220  0.86782389  0.10713494  1
  H  H987  1  0.92167848  0.65255768  0.18163753  1
  C  C988  1  0.55526197  0.92044550  0.10846343  1
  H  H989  1  0.59429171  0.57569302  0.23234918  1
  H  H990  1  0.67751630  0.70531258  0.15127274  1
  O  O991  1  0.77164605  0.54960495  0.07532932  1
  C  C992  1  0.79986390  0.85016074  0.22973792  1
  C  C993  1  0.74559734  0.96947097  0.13342171  1
  H  H994  1  0.99970755  0.55583869  0.04695096  1
  Zn  Zn995  1  0.68256870  0.93880598  0.20901739  1
  H  H996  1  0.50791248  0.83672951  0.05712899  1
  Zn  Zn997  1  0.79421521  0.55060059  0.15443793  1
  C  C998  1  0.83462503  0.96077343  0.03895400  1
  H  H999  1  0.52569828  0.66806144  0.21076211  1
  C  C1000  1  0.95104815  0.55788177  0.04190627  1
  C  C1001  1  0.75069429  0.88761263  0.23322957  1
  C  C1002  1  0.72034116  0.69174734  0.16123496  1
  O  O1003  1  0.71205388  0.63189966  0.17500746  1
  H  H1004  1  0.98161297  0.96652535  0.09516285  1
  C  C1005  1  0.68762899  0.76446915  0.00938253  1
  C  C1006  1  0.53301992  0.85512664  0.03327790  1
  H  H1007  1  0.93847314  0.89028186  0.16663409  1
  H  H1008  1  0.95892078  0.75193448  0.04883790  1
  C  C1009  1  0.92032890  0.55777630  0.07506414  1
  C  C1010  1  0.69724213  0.68056537  0.01655839  1
  H  H1011  1  0.59134105  0.82178763  0.21974836  1
  Zn  Zn1012  1  0.77204580  0.74045913  0.01520511  1
  C  C1013  1  0.89938005  0.82774117  0.03037145  1
  C  C1014  1  0.79645471  0.96065503  0.06841603  1
  C  C1015  1  0.74962939  0.78534350  0.06558103  1
  Zn  Zn1016  1  0.72504687  0.89427396  0.06981973  1
  C  C1017  1  0.70962445  0.91026849  0.12359385  1
  H  H1018  1  0.82665350  0.67499824  0.18332767  1
  C  C1019  1  0.76704504  0.70254428  0.06905133  1
  H  H1020  1  0.79241548  0.68454723  0.09338574  1
  C  C1021  1  0.95465163  0.83611725  0.17612906  1
  H  H1022  1  0.53742805  0.93727330  0.16664666  1
  H  H1023  1  0.67296973  0.64267034  0.00064571  1
  C  C1024  1  0.86376571  0.77636051  0.15872720  1
  C  C1025  1  0.81996131  0.72222061  0.16606016  1
  C  C1026  1  0.92076789  0.77050366  0.17422685  1
  C  C1027  1  0.76720852  0.74000533  0.15080449  1
  C  C1028  1  0.97761999  0.53422772  0.13571518  1
  O  O1029  1  0.69344359  0.53549491  0.04584112  1
  H  H1030  1  0.53753756  0.74309218  0.16960481  1
  C  C1031  1  0.87006839  0.54432281  0.17225105  1
  C  C1032  1  0.94660993  0.70306742  0.18483518  1
  C  C1033  1  0.85326620  0.84130835  0.13431292  1
  Zn  Zn1034  1  0.85798908  0.57380258  0.03857459  1
  C  C1035  1  0.79094351  0.98881106  0.10529310  1
  C  C1036  1  0.57571768  0.94927652  0.07542131  1
  H  H1037  1  0.53276532  0.71013363  0.03864152  1
  C  C1038  1  0.92557195  0.54882077  0.11354900  1
  H  H1039  1  0.81204198  0.82276702  0.20406548  1
  H  H1040  1  0.89127354  0.85171679  0.05864412  1
  O  O1041  1  0.87984948  0.89370573  0.12537464  1
  H  H1042  1  0.81315276  0.83732768  0.11803619  1
  C  C1043  1  0.93893586  0.77504086  0.02370366  1
  C  C1044  1  0.92120441  0.53613892  0.19341458  1
  C  C1045  1  0.91637093  0.53126578  0.23278641  1
  H  H1046  1  0.76120922  0.79325106  0.13771413  1
  C  C1047  1  0.82757375  0.91745047  0.00340294  1
  C  C1048  1  0.58762293  0.54014157  0.13297886  1
  H  H1049  1  0.62047467  0.99577680  0.00384569  1
  H  H1050  1  0.83797474  0.99321008  0.24450842  1
  C  C1051  1  0.53834775  0.66380147  0.23974430  1
  C  C1052  1  0.59528716  0.94675944  0.00392251  1
  H  H1053  1  0.74271076  0.99434380  0.16271016  1
  C  C1054  1  0.97571657  0.52670141  0.17308699  1
  H  H1055  1  0.67881737  0.54659796  0.13069755  1
  H  H1056  1  0.90940593  0.99477306  0.01381865  1
  C  C1057  1  0.64318960  0.51082486  0.12686210  1
  C  C1058  1  0.50268850  0.55793549  0.17943022  1
  C  C1059  1  0.65284192  0.85024709  0.43695393  1
  C  C1060  1  0.63489063  0.92930681  0.44164967  1
  C  C1061  1  0.58678012  0.60665385  0.29116264  1
  C  C1062  1  0.63578925  0.56183325  0.30465100  1
  C  C1063  1  0.59002890  0.85987607  0.29723459  1
  C  C1064  1  0.58427976  0.84299560  0.33708990  1
  H  H1065  1  0.60814077  0.79719826  0.34963079  1
  C  C1066  1  0.54792629  0.88535916  0.35649486  1
  C  C1067  1  0.96799160  0.98826020  0.30489436  1
  H  H1068  1  0.87237005  0.50106735  0.45032297  1
  C  C1069  1  0.62540297  0.80992906  0.27796496  1
  C  C1070  1  0.55765691  0.91921078  0.27847230  1
  C  C1071  1  0.69767692  0.70780478  0.44020805  1
  C  C1072  1  0.67797812  0.82305281  0.40418029  1
  H  H1073  1  0.68131791  0.85389901  0.37971721  1
  C  C1074  1  0.69958959  0.75063082  0.40766791  1
  H  H1075  1  0.52679076  0.71719984  0.46227591  1
  C  C1076  1  0.96922382  0.76457277  0.27174428  1
  C  C1077  1  0.57526466  0.50751818  0.37752147  1
  H  H1078  1  0.72437967  0.66076091  0.43905316  1
  C  C1079  1  0.65704741  0.76137855  0.26034268  1
  H  H1080  1  0.80896610  0.54399151  0.33634186  1
  H  H1081  1  0.70352683  0.59453583  0.48899478  1
  C  C1082  1  0.98607228  0.60412621  0.30429403  1
  O  O1083  1  0.90866849  0.52090472  0.26410423  1
  H  H1084  1  0.72031971  0.72527193  0.38337491  1
  C  C1085  1  0.91673775  0.75642647  0.36419766  1
  C  C1086  1  0.51795296  0.94807603  0.34031480  1
  C  C1087  1  0.87560840  0.87161593  0.40701389  1
  H  H1088  1  0.73622473  0.90877718  0.33054412  1
  C  C1089  1  0.90174204  0.99637881  0.43764555  1
  C  C1090  1  0.62144269  0.95292486  0.47798653  1
  H  H1091  1  0.93444765  0.71052321  0.34674775  1
  C  C1092  1  0.56360089  0.65509505  0.31731781  1
  C  C1093  1  0.64256251  0.97827161  0.41118715  1
  C  C1094  1  0.90932043  0.88339343  0.37500176  1
  Zn  Zn1095  1  0.50974016  0.91847170  0.40503526  1
  C  C1096  1  0.51148188  0.71219927  0.49112915  1
  C  C1097  1  0.99252461  0.83714872  0.45040330  1
  C  C1098  1  0.91229119  0.73606897  0.27581071  1
  H  H1099  1  0.96779125  0.58968434  0.49201071  1
  C  C1100  1  0.92573778  0.82694947  0.35121537  1
  H  H1101  1  0.82678322  0.79140688  0.43657809  1
  O  O1102  1  0.91927803  0.97950580  0.31068446  1
  C  C1103  1  0.52497701  0.96665833  0.29917576  1
  H  H1104  1  0.63908086  0.70810384  0.25071308  1
  C  C1105  1  0.79865122  0.52834327  0.49244003  1
  H  H1106  1  0.88718816  0.63813869  0.45836677  1
  C  C1107  1  0.82723433  0.83643921  0.26679697  1
  H  H1108  1  0.79113937  0.58250176  0.47784636  1
  H  H1109  1  0.77289449  0.90248982  0.42916654  1
  H  H1110  1  0.95174218  0.83519168  0.32610002  1
  C  C1111  1  0.85738006  0.79900140  0.41507806  1
  C  C1112  1  0.86145013  0.66215059  0.40023775  1
  H  H1113  1  0.95688133  0.86839123  0.43678710  1
  C  C1114  1  0.83516010  0.63679262  0.36682139  1
  C  C1115  1  0.86854330  0.78548577  0.27167867  1
  C  C1116  1  0.86184613  0.93954426  0.42855041  1
  H  H1117  1  0.90237208  0.67885062  0.28464364  1
  H  H1118  1  0.83416327  0.67296159  0.34207950  1
  H  H1119  1  0.65489762  0.95638467  0.38317056  1
  C  C1120  1  0.80289718  0.85946894  0.30283394  1
  H  H1121  1  0.92312203  0.93974121  0.36984174  1
  H  H1122  1  0.94592998  0.98475565  0.43061546  1
  C  C1123  1  0.80273406  0.94951706  0.43413985  1
  C  C1124  1  0.72668116  0.91421038  0.26779218  1
  C  C1125  1  0.86227179  0.54140190  0.42707535  1
  H  H1126  1  0.83191052  0.85001127  0.32574528  1
  C  C1127  1  0.75580113  0.89805325  0.30369665  1
  C  C1128  1  0.67231709  0.52766982  0.31970676  1
  H  H1129  1  0.62400567  0.82746849  0.49517026  1
  O  O1130  1  0.79813219  0.69916711  0.49198529  1
  C  C1131  1  0.88184183  0.73963260  0.39513512  1
  C  C1132  1  0.87045630  0.61623377  0.43216788  1
  C  C1133  1  0.95058385  0.55989709  0.29401086  1
  C  C1134  1  0.83873503  0.51291913  0.39115750  1
  C  C1135  1  0.82451418  0.56332615  0.36242252  1
  Zn  Zn1136  1  0.96625711  0.53118770  0.34865526  1
  H  H1137  1  0.71178051  0.91534131  0.49129458  1
  O  O1138  1  0.50638344  0.83665045  0.44814188  1
  H  H1139  1  0.57761272  0.65420346  0.34611648  1
  C  C1140  1  0.64616463  0.80588116  0.46927664  1
  C  C1141  1  0.66565803  0.73397158  0.47091428  1
  C  C1142  1  0.51485785  0.71198703  0.26598639  1
  C  C1143  1  0.52752397  0.70986385  0.30351368  1
  H  H1144  1  0.61653504  0.50758033  0.36591363  1
  H  H1145  1  0.97352971  0.81959689  0.26020578  1
  H  H1146  1  0.50681056  0.74895685  0.32224894  1
  C  C1147  1  0.52749619  0.52551365  0.35529521  1
  H  H1148  1  0.56778412  0.93282654  0.25081989  1
  C  C1149  1  0.68049552  0.97641025  0.26553301  1
  H  H1150  1  0.53440620  0.54244730  0.32635810  1
  C  C1151  1  0.57483006  0.61281535  0.25246759  1
  O  O1152  1  0.98994712  0.97754186  0.27193884  1
  H  H1153  1  0.88876708  0.87695558  0.48015907  1
  H  H1154  1  0.70225897  0.77111196  0.25242997  1
  C  C1155  1  0.64006521  0.70420102  0.57298652  1
  H  H1156  1  0.62110173  0.73354662  0.59864370  1
  O  O1157  1  0.53027602  0.67335034  0.65510054  1
  C  C1158  1  0.56569499  0.62782030  0.65533109  1
  C  C1159  1  0.66582146  0.63469570  0.57825816  1
  C  C1160  1  0.68923485  0.59350506  0.54984713  1
  H  H1161  1  0.61272900  0.78500164  0.53265728  1
  C  C1162  1  0.63750371  0.73358389  0.53728570  1
  C  C1163  1  0.95070345  0.57476855  0.62724587  1
  C  C1164  1  0.68754092  0.62300648  0.51357989  1
  H  H1165  1  0.50729717  0.55197816  0.69875143  1
  H  H1166  1  0.52573326  0.85885809  0.57508552  1
  H  H1167  1  0.90590642  0.78597148  0.54748860  1
  H  H1168  1  0.95020129  0.79125511  0.71554289  1
  H  H1169  1  0.67037273  0.92193196  0.65005864  1
  C  C1170  1  0.52251305  0.73532859  0.74768958  1
  C  C1171  1  0.54502263  0.95886033  0.60196134  1
  C  C1172  1  0.95728349  0.96682503  0.56586757  1
  O  O1173  1  0.90873398  0.91406400  0.67281823  1
  C  C1174  1  0.98291074  0.62805740  0.51467071  1
  H  H1175  1  0.58715984  0.56508946  0.55071529  1
  H  H1176  1  0.59864630  0.68138170  0.71031494  1
  C  C1177  1  0.89844054  0.96208996  0.56350844  1
  Zn  Zn1178  1  0.66265150  0.60513587  0.63379151  1
  C  C1179  1  0.65138258  0.80477619  0.66240575  1
  C  C1180  1  0.67530828  0.86506345  0.63907876  1
  C  C1181  1  0.53473177  0.88266732  0.60176269  1
  C  C1182  1  0.59793673  0.56235086  0.66189255  1
  H  H1183  1  0.51419720  0.78956139  0.63697354  1
  C  C1184  1  0.93874241  0.67889186  0.53023686  1
  H  H1185  1  0.59265562  0.97639166  0.69114609  1
  C  C1186  1  0.70911642  0.81437421  0.66265302  1
  O  O1187  1  0.52699144  0.97048638  0.53866949  1
  C  C1188  1  0.98171682  0.77910874  0.58131631  1
  H  H1189  1  0.67330185  0.85708658  0.60758002  1
  C  C1190  1  0.96589513  0.89217610  0.51350719  1
  C  C1191  1  0.79278742  0.78139152  0.59317259  1
  C  C1192  1  0.68466382  0.75696103  0.68392471  1
  C  C1193  1  0.82915837  0.79035157  0.62393683  1
  C  C1194  1  0.63791294  0.66231111  0.72280500  1
  C  C1195  1  0.76544639  0.97736206  0.57320340  1
  C  C1196  1  0.59351317  0.85874957  0.73392494  1
  C  C1197  1  0.90711957  0.89981726  0.50604249  1
  C  C1198  1  0.52419942  0.76964051  0.71228494  1
  C  C1199  1  0.86008715  0.84750485  0.71909339  1
  C  C1200  1  0.63854242  0.60445110  0.74703308  1
  C  C1201  1  0.77047782  0.89017616  0.74246621  1
  C  C1202  1  0.83683780  0.52145120  0.52389796  1
  C  C1203  1  0.90973103  0.55054267  0.56570219  1
  H  H1204  1  0.74063858  0.70120801  0.56563302  1
  H  H1205  1  0.82382084  0.93121254  0.52935179  1
  C  C1206  1  0.55554156  0.54759958  0.57208234  1
  H  H1207  1  0.61662695  0.91514533  0.50188341  1
  C  C1208  1  0.57109396  0.99080636  0.63391456  1
  H  H1209  1  0.96149858  0.83128315  0.59151577  1
  C  C1210  1  0.87411581  0.57580689  0.53409237  1
  C  C1211  1  0.82678809  0.66800708  0.63877241  1
  C  C1212  1  0.87157382  0.92994200  0.53238687  1
  H  H1213  1  0.81338448  0.93558951  0.69327099  1
  O  O1214  1  0.82245952  0.54505195  0.66179494  1
  C  C1215  1  0.91666488  0.59843142  0.59741344  1
  C  C1216  1  0.77187569  0.70868222  0.58743286  1
  H  H1217  1  0.95162001  0.60981522  0.65100477  1
  H  H1218  1  0.89472351  0.65088765  0.59693468  1
  H  H1219  1  0.73517692  0.93010354  0.74417550  1
  H  H1220  1  0.78016494  0.59510745  0.60115876  1
  H  H1221  1  0.62379573  0.90349420  0.72994916  1
  C  C1222  1  0.75056390  0.84162530  0.53392358  1
  C  C1223  1  0.77455184  0.84687282  0.57049697  1
  H  H1224  1  0.87722831  0.74451264  0.67118373  1
  O  O1225  1  0.87412662  0.62360803  0.69199017  1
  H  H1226  1  0.71198867  0.54119688  0.55329121  1
  C  C1227  1  0.85944762  0.78887924  0.74414630  1
  C  C1228  1  0.78139581  0.91135582  0.59048307  1
  C  C1229  1  0.84170876  0.60652130  0.66578683  1
  C  C1230  1  0.81378887  0.89674199  0.71708580  1
  H  H1231  1  0.74698883  0.78945467  0.51802697  1
  O  O1232  1  0.96083117  0.82241506  0.69419902  1
  H  H1233  1  0.93393036  0.65839596  0.73290283  1
  H  H1234  1  0.84639012  0.84473404  0.62643993  1
  H  H1235  1  0.80459816  0.90759571  0.61713592  1
  C  C1236  1  0.94193924  0.74779869  0.55148557  1
  C  C1237  1  0.79151070  0.64981938  0.60818619  1
  C  C1238  1  0.84716026  0.73672751  0.64778062  1
  Zn  Zn1239  1  0.92293625  0.54814192  0.72151896  1
  C  C1240  1  0.88381645  0.64881132  0.52087997  1
  C  C1241  1  0.90902936  0.86409794  0.69435559  1
  H  H1242  1  0.89317582  0.74769790  0.74577138  1
  C  C1243  1  0.73838968  0.97630555  0.53846633  1
  H  H1244  1  0.53997033  0.60239629  0.50072540  1
  C  C1245  1  0.68885048  0.69630260  0.71014527  1
  O  O1246  1  0.97801018  0.65713817  0.73436450  1
  C  C1247  1  0.54996528  0.87828430  0.66888366  1
  C  C1248  1  0.99495320  0.92724356  0.54170301  1
  C  C1249  1  0.73316910  0.90946404  0.51907467  1
  C  C1250  1  0.57301723  0.95122266  0.66681606  1
  C  C1251  1  0.55521206  0.83604812  0.70486384  1
  C  C1252  1  0.52990277  0.84586327  0.63595821  1
  C  C1253  1  0.50160205  0.58142493  0.57434963  1
  C  C1254  1  0.74180318  0.66126749  0.72043968  1
  C  C1255  1  0.66498930  0.69449970  0.50795990  1
  C  C1256  1  0.51881186  0.65093273  0.51352873  1
  O  O1257  1  0.99989305  0.51003554  0.68667937  1
  H  H1258  1  0.77814905  0.68221912  0.70646401  1
  C  C1259  1  0.97424198  0.50336621  0.62561352  1
  H  H1260  1  0.87305386  0.98712215  0.58613333  1
  C  C1261  1  0.74208674  0.60465237  0.74601916  1
  C  C1262  1  0.84509236  0.70117258  0.50443055  1
  H  H1263  1  0.86262624  0.75731282  0.50060752  1
  C  C1264  1  0.62098641  0.76708865  0.85740430  1
  C  C1265  1  0.57048365  0.80455378  0.86744337  1
  H  H1266  1  0.59318240  0.59010648  0.85908910  1
  C  C1267  1  0.58180527  0.64695984  0.86370498  1
  C  C1268  1  0.62995075  0.69248181  0.85474574  1
  H  H1269  1  0.59847013  0.57755866  0.75302465  1
  H  H1270  1  0.89414729  0.98377086  0.82879600  1
  H  H1271  1  0.66811038  0.66801674  0.84597282  1
  C  C1272  1  0.55022024  0.50325568  0.93492334  1
  H  H1273  1  0.53110981  0.83783754  0.93771311  1
  C  C1274  1  0.54342577  0.85902745  0.96502119  1
  C  C1275  1  0.78995233  0.93511894  0.97638829  1
  C  C1276  1  0.70990213  0.68162726  0.92674584  1
  C  C1277  1  0.74888178  0.62550680  0.93957834  1
  H  H1278  1  0.75809179  0.51112310  0.96080476  1
  C  C1279  1  0.94424319  0.81536553  0.81052298  1
  H  H1280  1  0.97382418  0.87730582  0.98612195  1
  O  O1281  1  0.98675450  0.91174482  0.96774818  1
  O  O1282  1  0.90288057  0.51278335  0.77213657  1
  H  H1283  1  0.90565815  0.89186246  0.77333996  1
  C  C1284  1  0.52747766  0.67402234  0.86671152  1
  C  C1285  1  0.65373587  0.66319238  0.92564926  1
  H  H1286  1  0.61757169  0.69523367  0.91389730  1
  C  C1287  1  0.81659216  0.78326508  0.77021870  1
  H  H1288  1  0.72362586  0.73204522  0.91257412  1
  C  C1289  1  0.98489751  0.70241734  0.77307078  1
  H  H1290  1  0.81929000  0.73882527  0.79043227  1
  C  C1291  1  0.96777840  0.75530609  0.79130635  1
  C  C1292  1  0.63661788  0.59013893  0.93677142  1
  C  C1293  1  0.51968270  0.75184186  0.86974494  1
  H  H1294  1  0.79336101  0.90405630  0.95030142  1
  H  H1295  1  0.89959513  0.63862825  0.91640583  1
  O  O1296  1  0.76486556  0.74262436  0.84936297  1
  C  C1297  1  0.67402851  0.53774237  0.95010401  1
  C  C1298  1  0.56125175  0.88185538  0.87316298  1
  O  O1299  1  0.83212279  0.92151942  0.89403192  1
  C  C1300  1  0.73505801  0.84692782  0.80382600  1
  H  H1301  1  0.60540843  0.93348462  0.94582182  1
  C  C1302  1  0.73990823  0.79028489  0.83501083  1
  C  C1303  1  0.70180634  0.91480010  0.81264062  1
  H  H1304  1  0.86853307  0.87406939  0.94011588  1
  H  H1305  1  0.55676344  0.73177931  0.80137048  1
  C  C1306  1  0.88377763  0.60604377  0.98330145  1
  C  C1307  1  0.57246611  0.57851466  0.93705850  1
  C  C1308  1  0.92577637  0.88423833  0.86815461  1
  C  C1309  1  0.77383486  0.83849017  0.77270675  1
  C  C1310  1  0.89589047  0.92343277  0.83413099  1
  H  H1311  1  0.50280586  0.96931411  0.88145856  1
  C  C1312  1  0.91425301  0.59609949  0.89835201  1
  C  C1313  1  0.80810872  0.64673165  0.94100754  1
  C  C1314  1  0.91588274  0.54761717  0.83580338  1
  C  C1315  1  0.53669974  0.63740024  0.93874684  1
  C  C1316  1  0.68785893  0.98300566  0.79994897  1
  C  C1317  1  0.92591351  0.78609987  0.95725672  1
  Zn  Zn1318  1  0.67399701  0.85610170  0.85701866  1
  C  C1319  1  0.89799084  0.59878470  0.86100912  1
  C  C1320  1  0.60710038  0.93453183  0.86841292  1
  C  C1321  1  0.86869408  0.90892570  0.87425086  1
  H  H1322  1  0.99403113  0.80210703  0.86275118  1
  H  H1323  1  0.94225576  0.77312785  0.93110770  1
  C  C1324  1  0.94888691  0.53605753  0.90839316  1
  H  H1325  1  0.55685598  0.69194439  0.93661332  1
  O  O1326  1  0.85919845  0.60876273  0.79311596  1
  C  C1327  1  0.95457633  0.75366735  0.98762485  1
  H  H1328  1  0.86999124  0.64453796  0.85360752  1
  C  C1329  1  0.88669541  0.55549334  0.79926276  1
  H  H1330  1  0.95773895  0.91599652  0.88465071  1
  O  O1331  1  0.84486817  0.58663281  0.95943852  1
  H  H1332  1  0.88847183  0.66858587  0.98354232  1
  O  O1333  1  0.64674343  0.51268024  0.80859193  1
  H  H1334  1  0.92248244  0.76956647  0.86624637  1
  C  C1335  1  0.88553207  0.83816221  0.96353206  1
  C  C1336  1  0.58346839  0.91400134  0.97028790  1
  C  C1337  1  0.91479530  0.87697305  0.80198837  1
  C  C1338  1  0.55601989  0.76420370  0.77594855  1
  C  C1339  1  0.95042902  0.81321874  0.85440965  1
  O  O1340  1  0.82826355  0.70486631  0.93562211  1
  C  C1341  1  0.69053430  0.58042463  0.76209958  1
  C  C1342  1  0.73101752  0.55641054  0.95121468  1
  H  H1343  1  0.53487707  0.63885218  0.80363006  1
  C  C1344  1  0.68730919  0.52526452  0.79184949  1
  C  C1345  1  0.58775549  0.82797569  0.76912669  1
  C  C1346  1  0.51807330  0.82874816  0.99693246  1
  H  H1347  1  0.61269998  0.85301964  0.78963494  1
  H  H1348  1  0.78046500  0.57871730  0.75632295  1
  C  C1349  1  0.50704596  0.91017362  0.87722824  1
  C  C1350  1  0.50163810  0.61997977  0.78470228  1
  O  O1351  1  0.61376815  0.99789930  0.86796769  1
  H  H1352  1  0.96663092  0.55535674  0.98242762  1
  C  C1353  1  0.74999900  0.99653749  0.98193013  1
  H  H1354  1  0.64612081  0.77965978  0.99875369  1
  C  C1355  1  0.87349043  0.86011595  0.99884402  1
