# generated using pymatgen
data_Zn5H72(C16O5)6
_symmetry_space_group_name_H-M   'P 1'
_cell_length_a   19.00763745
_cell_length_b   27.12352576
_cell_length_c   24.50138018
_cell_angle_alpha   90.00000000
_cell_angle_beta   90.00000000
_cell_angle_gamma   90.00000000
_symmetry_Int_Tables_number   1
_chemical_formula_structural   Zn5H72(C16O5)6
_chemical_formula_sum   'Zn20 H288 C384 O120'
_cell_volume   12631.78808333
_cell_formula_units_Z   4
loop_
 _symmetry_equiv_pos_site_id
 _symmetry_equiv_pos_as_xyz
  1  'x, y, z'
loop_
 _atom_site_type_symbol
 _atom_site_label
 _atom_site_symmetry_multiplicity
 _atom_site_fract_x
 _atom_site_fract_y
 _atom_site_fract_z
 _atom_site_occupancy
  C  C0  1  0.15705438  0.15578294  0.30695466  1
  O  O1  1  0.13774987  0.11155283  0.28832931  1
  H  H2  1  0.09537626  0.19227820  0.24794861  1
  C  C3  1  0.13278468  0.19778289  0.28140220  1
  C  C4  1  0.21738271  0.21503892  0.36632473  1
  C  C5  1  0.15835864  0.01320560  0.31992362  1
  C  C6  1  0.16660245  0.06714111  0.32222324  1
  C  C7  1  0.20288668  0.16636482  0.35334907  1
  H  H8  1  0.15037179  0.08070332  0.36535265  1
  H  H9  1  0.06465127  0.11359161  0.35419246  1
  H  H10  1  0.07359891  0.23763991  0.37864710  1
  H  H11  1  0.08232124  0.03156843  0.38555422  1
  H  H12  1  0.22274105  0.07708664  0.31072833  1
  O  O13  1  0.23399401  0.13152797  0.38043780  1
  O  O14  1  0.03390141  0.04724328  0.45219026  1
  H  H15  1  0.21284957  0.13750187  0.19284476  1
  H  H16  1  0.22716631  0.21780447  0.24292848  1
  C  C17  1  0.10732293  0.17867920  0.46625911  1
  C  C18  1  0.02872020  0.04675300  0.39609791  1
  H  H19  1  0.13432709  0.01589714  0.13226899  1
  C  C20  1  0.01318669  0.09647530  0.36439086  1
  C  C21  1  0.14016477  0.24691639  0.29198595  1
  O  O22  1  0.23938284  0.07566742  0.11555087  1
  H  H23  1  0.02434549  0.23184946  0.22271731  1
  C  C24  1  0.24988055  0.16595534  0.17752306  1
  O  O25  1  0.05518278  0.17996876  0.48144070  1
  C  C26  1  0.23194209  0.46870397  0.07093878  1
  O  O27  1  0.00025721  0.41751127  0.48730456  1
  C  C28  1  0.01868019  0.38775581  0.14325857  1
  C  C29  1  0.23222532  0.42311115  0.10955348  1
  O  O30  1  0.14008373  0.28726816  0.07214302  1
  C  C31  1  0.02314383  0.29989556  0.17626537  1
  H  H32  1  0.20615160  0.25085365  0.12054519  1
  C  C33  1  0.15800313  0.27309896  0.11544968  1
  H  H34  1  0.13647888  0.28783760  0.15594221  1
  H  H35  1  0.17809557  0.48632082  0.06622540  1
  H  H36  1  0.18457381  0.39957445  0.10506662  1
  C  C37  1  0.18664494  0.25452512  0.33766478  1
  C  C38  1  0.05468318  0.34726322  0.17394670  1
  H  H39  1  0.18550742  0.33404516  0.26962849  1
  O  O40  1  0.14750987  0.47677858  0.42920823  1
  C  C41  1  0.19883439  0.45102299  0.44554563  1
  C  C42  1  0.03401266  0.26206412  0.39689969  1
  H  H43  1  0.23451564  0.49037858  0.23616193  1
  C  C44  1  0.11248803  0.36079068  0.20582302  1
  C  C45  1  0.24638520  0.31925622  0.39950725  1
  C  C46  1  0.00884826  0.33664728  0.44699153  1
  H  H47  1  0.10306279  0.33636691  0.32996730  1
  Zn  Zn48  1  0.05430868  0.48577351  0.48599890  1
  C  C49  1  0.10746470  0.27989607  0.24798152  1
  H  H50  1  0.10893201  0.42019355  0.37604111  1
  C  C51  1  0.14022087  0.32634425  0.24251431  1
  C  C52  1  0.04844759  0.26739375  0.21425631  1
  O  O53  1  0.04829811  0.42912661  0.14301764  1
  H  H54  1  0.13694467  0.39597830  0.19781308  1
  C  C55  1  0.14965660  0.39163753  0.37907230  1
  C  C56  1  0.19566802  0.30558213  0.35993153  1
  O  O57  1  0.24060981  0.46751068  0.47970710  1
  C  C58  1  0.03506046  0.37875244  0.48377745  1
  H  H59  1  0.10791706  0.29888594  0.45176396  1
  C  C60  1  0.20584519  0.40187696  0.41582151  1
  C  C61  1  0.05524553  0.29811540  0.43463553  1
  C  C62  1  0.14708697  0.34661304  0.35530964  1
  C  C63  1  0.16170418  0.21177632  0.62573078  1
  C  C64  1  0.19091757  0.22687189  0.73351510  1
  H  H65  1  0.14730562  0.11069596  0.58003016  1
  C  C66  1  0.22335612  0.18564435  0.70691358  1
  C  C67  1  0.21282755  0.18033343  0.64857072  1
  H  H68  1  0.15140833  0.20552043  0.58325939  1
  C  C69  1  0.20425828  0.10652649  0.58090747  1
  H  H70  1  0.17183308  0.16773667  0.80200418  1
  H  H71  1  0.08494684  0.23354397  0.54893487  1
  C  C72  1  0.23909745  0.07419303  0.54667760  1
  H  H73  1  0.21101454  0.05179439  0.51639720  1
  C  C74  1  0.22283645  0.14902106  0.79631709  1
  H  H75  1  0.20053814  0.23599250  0.77642298  1
  C  C76  1  0.24535861  0.14116977  0.61318090  1
  C  C77  1  0.12792216  0.24944185  0.65381546  1
  C  C78  1  0.24943377  0.12525307  0.84099779  1
  H  H79  1  0.22040993  0.12631127  0.88068051  1
  H  H80  1  0.22451648  0.16416476  0.50104679  1
  H  H81  1  0.03424273  0.35715731  0.74857549  1
  O  O82  1  0.02383461  0.41306064  0.63211980  1
  O  O83  1  0.07106872  0.28008044  0.61682509  1
  C  C84  1  0.05985849  0.32535369  0.72822335  1
  Zn  Zn85  1  0.10722627  0.42308325  0.57881146  1
  O  O86  1  0.09302216  0.37514612  0.50847703  1
  O  O87  1  0.11239362  0.49189933  0.54961299  1
  C  C88  1  0.07034557  0.27308970  0.56478593  1
  C  C89  1  0.14522645  0.25769441  0.70534058  1
  O  O90  1  0.19238994  0.43162290  0.63927422  1
  O  O91  1  0.01874595  0.48881334  0.66550299  1
  H  H92  1  0.03389853  0.31012643  0.69173134  1
  H  H93  1  0.02971745  0.29114332  0.53619097  1
  O  O94  1  0.11128895  0.30476992  0.74473930  1
  Zn  Zn95  1  0.17696828  0.29996473  0.53865233  1
  H  H96  1  0.20279223  0.35318022  0.68497160  1
  C  C97  1  0.14052500  0.61580861  0.13286307  1
  C  C98  1  0.14097234  0.66247011  0.10775544  1
  H  H99  1  0.09693472  0.70853930  0.31254566  1
  C  C100  1  0.16302907  0.60578730  0.18743866  1
  H  H101  1  0.15773712  0.56774389  0.20331492  1
  C  C102  1  0.18229486  0.64352434  0.21937180  1
  C  C103  1  0.16387305  0.70092963  0.14089431  1
  C  C104  1  0.18701732  0.69240724  0.19645170  1
  C  C105  1  0.11388088  0.57372017  0.09837594  1
  H  H106  1  0.12551651  0.67080888  0.06613102  1
  O  O107  1  0.10351519  0.57418292  0.04788283  1
  O  O108  1  0.10347584  0.53529887  0.12612372  1
  H  H109  1  0.07436796  0.63218326  0.25985186  1
  H  H110  1  0.19746530  0.63653433  0.26121424  1
  C  C111  1  0.19729752  0.73202079  0.23836403  1
  H  H112  1  0.16087841  0.74086202  0.12959565  1
  H  H113  1  0.05254506  0.72706378  0.21002697  1
  C  C114  1  0.04571970  0.70261456  0.29290302  1
  C  C115  1  0.03239962  0.65983524  0.26330859  1
  C  C116  1  0.24078018  0.72702149  0.28328757  1
  H  H117  1  0.23541287  0.57860000  0.04624704  1
  C  C118  1  0.05564641  0.75590776  0.18096755  1
  C  C119  1  0.00687924  0.76101493  0.13996542  1
  C  C120  1  0.09873281  0.98303064  0.13987407  1
  C  C121  1  0.00092351  0.81564924  0.42758157  1
  H  H122  1  0.02429159  0.90539318  0.24370490  1
  H  H123  1  0.04078697  0.99150167  0.13220011  1
  C  C124  1  0.15131499  0.77534024  0.23981313  1
  C  C125  1  0.04469503  0.99489788  0.47498876  1
  C  C126  1  0.20303123  0.82884474  0.02280580  1
  H  H127  1  0.07150951  0.94914126  0.40967594  1
  C  C128  1  0.00371397  0.86527013  0.41265917  1
  H  H129  1  0.15890589  0.80678118  0.04031862  1
  C  C130  1  0.01142869  0.80458758  0.10958112  1
  C  C131  1  0.20434194  0.80420082  0.32758184  1
  O  O132  1  0.01328540  0.89715030  0.45428639  1
  H  H133  1  0.10087887  0.99292368  0.49178875  1
  H  H134  1  0.08557358  0.90763964  0.16767325  1
  C  C135  1  0.02654987  0.95314358  0.43718575  1
  H  H136  1  0.10600212  0.92190031  0.30813809  1
  H  H137  1  0.17780427  0.92843385  0.15964343  1
  C  C138  1  0.24927424  0.76182096  0.32777936  1
  C  C139  1  0.10748702  0.83402410  0.15743071  1
  H  H140  1  0.16892334  0.89916746  0.05185082  1
  C  C141  1  0.05993330  0.84328222  0.11684806  1
  C  C142  1  0.15481790  0.92507249  0.33259625  1
  H  H143  1  0.18218315  0.89751970  0.41640576  1
  C  C144  1  0.12218690  0.93901478  0.15856138  1
  H  H145  1  0.11125647  0.86382989  0.38022056  1
  O  O146  1  0.23528270  0.98029398  0.04012456  1
  C  C147  1  0.20785922  0.87936000  0.02635841  1
  O  O148  1  0.16775335  0.98185328  0.35716678  1
  H  H149  1  0.20282160  0.92542572  0.30512093  1
  C  C150  1  0.15532727  0.80823885  0.28397804  1
  H  H151  1  0.15202011  0.85857867  0.16536473  1
  H  H152  1  0.05942171  0.87645882  0.09262682  1
  C  C153  1  0.10584933  0.79171518  0.19215563  1
  O  O154  1  0.21179035  0.83548213  0.36934127  1
  H  H155  1  0.00670785  0.80839978  0.47259343  1
  C  C156  1  0.16215325  0.88494263  0.37453348  1
  H  H157  1  0.11562214  0.83838664  0.28557106  1
  H  H158  1  0.01238703  0.99297090  0.23702941  1
  H  H159  1  0.15604358  0.99641223  0.27866219  1
  H  H160  1  0.12684354  0.66121524  0.68806659  1
  C  C161  1  0.13533738  0.66658658  0.86383971  1
  C  C162  1  0.11599479  0.70228413  0.90173603  1
  H  H163  1  0.10375993  0.63392709  0.85902411  1
  O  O164  1  0.12017121  0.60795009  0.61167234  1
  Zn  Zn165  1  0.06513314  0.53730480  0.60147472  1
  C  C166  1  0.05274374  0.69058147  0.93601475  1
  H  H167  1  0.18730207  0.72207345  0.75030454  1
  C  C168  1  0.18247388  0.66570050  0.68830423  1
  C  C169  1  0.18519023  0.61077407  0.60734093  1
  O  O170  1  0.03272206  0.71983655  0.97191017  1
  C  C171  1  0.20180416  0.67241724  0.83836816  1
  O  O172  1  0.01980318  0.65022315  0.92764531  1
  C  C173  1  0.21667355  0.69561978  0.72536208  1
  C  C174  1  0.22363771  0.64190067  0.64793548  1
  O  O175  1  0.21814861  0.58951329  0.57066726  1
  C  C176  1  0.15214765  0.74716627  0.91266791  1
  H  H177  1  0.17985673  0.73938911  0.61656894  1
  Zn  Zn178  1  0.21177385  0.51111415  0.55285925  1
  H  H179  1  0.22658834  0.52067522  0.96269144  1
  H  H180  1  0.22525418  0.64430759  0.81161968  1
  C  C181  1  0.23723280  0.71814993  0.84792629  1
  H  H182  1  0.01379763  0.70317295  0.64472479  1
  Zn  Zn183  1  0.01701858  0.59970581  0.99933360  1
  H  H184  1  0.01060070  0.74568373  0.51072666  1
  O  O185  1  0.00024866  0.76788470  0.82521012  1
  H  H186  1  0.16896732  0.88805469  0.83987013  1
  C  C187  1  0.20990367  0.77623745  0.61516616  1
  C  C188  1  0.22408879  0.83841613  0.78243500  1
  H  H189  1  0.24327544  0.79083634  0.89210726  1
  C  C190  1  0.10568948  0.80468426  0.79809142  1
  C  C191  1  0.22014255  0.87337285  0.82664725  1
  H  H192  1  0.14631402  0.83684865  0.57400635  1
  C  C193  1  0.21330631  0.75564825  0.88604317  1
  H  H194  1  0.07145260  0.76908650  0.64878482  1
  H  H195  1  0.12495108  0.77565051  0.93679255  1
  C  C196  1  0.15910975  0.81509718  0.76037747  1
  C  C197  1  0.23940403  0.85403268  0.66208502  1
  C  C198  1  0.08410048  0.77943848  0.69192760  1
  H  H199  1  0.24067195  0.87348298  0.70278507  1
  C  C200  1  0.14614845  0.80421626  0.70348483  1
  C  C201  1  0.20202371  0.80934477  0.65982897  1
  C  C202  1  0.04452688  0.77923988  0.78421162  1
  C  C203  1  0.08857598  0.84654113  0.57128261  1
  C  C204  1  0.03243524  0.76468175  0.72903576  1
  H  H205  1  0.06811696  0.88502853  0.55889970  1
  H  H206  1  0.11211002  0.81304640  0.84315384  1
  O  O207  1  0.04472305  0.81616617  0.57263208  1
  H  H208  1  0.01112081  0.99910574  0.51178205  1
  C  C209  1  0.28689758  0.15632504  0.12973693  1
  C  C210  1  0.32617402  0.19568161  0.10695103  1
  C  C211  1  0.28236985  0.10876055  0.09973261  1
  H  H212  1  0.36053769  0.18848334  0.07066642  1
  O  O213  1  0.32638470  0.10263143  0.06297477  1
  C  C214  1  0.36594473  0.22056428  0.28500066  1
  H  H215  1  0.35317135  0.20980415  0.24277527  1
  H  H216  1  0.32703866  0.16851920  0.40196826  1
  C  C217  1  0.39539506  0.18659607  0.31874589  1
  H  H218  1  0.40457712  0.14823398  0.30340216  1
  C  C219  1  0.41817489  0.20030784  0.37224104  1
  H  H220  1  0.44103809  0.14242459  0.13934036  1
  H  H221  1  0.42706722  0.06517950  0.17944983  1
  C  C222  1  0.44615009  0.09461473  0.20739539  1
  C  C223  1  0.45394013  0.14095098  0.18288508  1
  C  C224  1  0.45578038  0.16402528  0.41196586  1
  C  C225  1  0.46767183  0.19501600  0.03949960  1
  Zn  Zn226  1  0.46988429  0.04586543  0.41353280  1
  O  O227  1  0.44345595  0.11964633  0.40258284  1
  H  H228  1  0.31137596  0.11030184  0.43400432  1
  C  C229  1  0.28931818  0.14713852  0.42778851  1
  H  H230  1  0.43664662  0.22757328  0.02198846  1
  O  O231  1  0.49055395  0.17660440  0.44949917  1
  O  O232  1  0.30933311  0.01310760  0.47405106  1
  Zn  Zn233  1  0.25125855  0.00208789  0.12541418  1
  C  C234  1  0.46744108  0.14669871  0.01823833  1
  C  C235  1  0.27350442  0.17421868  0.47921102  1
  Zn  Zn236  1  0.36313475  0.05082604  0.00464363  1
  O  O237  1  0.27786244  0.23535840  0.49004334  1
  C  C238  1  0.25435716  0.21086872  0.20324372  1
  C  C239  1  0.32834200  0.23929216  0.13310444  1
  C  C240  1  0.48263613  0.18147475  0.21008358  1
  C  C241  1  0.41252898  0.24945215  0.38931437  1
  C  C242  1  0.47766557  0.03712753  0.28291463  1
  C  C243  1  0.47735631  0.08716300  0.25846072  1
  C  C244  1  0.48985436  0.24366336  0.12754420  1
  O  O245  1  0.44696026  0.00177233  0.25968044  1
  O  O246  1  0.41246492  0.04376650  0.49715643  1
  C  C247  1  0.49148891  0.23237143  0.18445044  1
  H  H248  1  0.25207122  0.22600649  0.40139516  1
  H  H249  1  0.41003451  0.44622686  0.02671090  1
  H  H250  1  0.43108059  0.25945561  0.43037093  1
  C  C251  1  0.29409815  0.25039392  0.18346165  1
  C  C252  1  0.46407676  0.40413694  0.23365167  1
  C  C253  1  0.27043790  0.34145115  0.18434073  1
  O  O254  1  0.47631529  0.49678525  0.25988184  1
  H  H255  1  0.30357793  0.37362163  0.44908513  1
  C  C256  1  0.47654749  0.32148221  0.20361776  1
  O  O257  1  0.47651438  0.35421527  0.24649461  1
  C  C258  1  0.29015933  0.39545617  0.25960409  1
  C  C259  1  0.25687815  0.36602683  0.42280479  1
  H  H260  1  0.47428488  0.29666230  0.06773617  1
  C  C261  1  0.47084127  0.37978380  0.06685567  1
  C  C262  1  0.46702926  0.43163132  0.03592987  1
  C  C263  1  0.38212375  0.28387212  0.35469915  1
  H  H264  1  0.49602429  0.26453974  0.26202566  1
  C  C265  1  0.48787693  0.27327074  0.21646647  1
  H  H266  1  0.41445914  0.40446537  0.20952819  1
  H  H267  1  0.40716434  0.44761633  0.29590485  1
  O  O268  1  0.25594729  0.46726907  0.01652090  1
  C  C269  1  0.47781515  0.29241302  0.11240957  1
  C  C270  1  0.27357232  0.39051356  0.20193774  1
  C  C271  1  0.46194162  0.44743040  0.27549898  1
  H  H272  1  0.28434424  0.28879129  0.40618704  1
  O  O273  1  0.46605987  0.37878227  0.12399207  1
  H  H274  1  0.32560344  0.48193882  0.22389916  1
  C  C275  1  0.28614988  0.48436270  0.25683580  1
  C  C276  1  0.47208009  0.33301822  0.14568500  1
  H  H277  1  0.35898129  0.26902589  0.11285535  1
  C  C278  1  0.35212781  0.26987942  0.30281831  1
  H  H279  1  0.42984410  0.48302344  0.18398763  1
  C  C280  1  0.29658000  0.29998923  0.21189392  1
  H  H281  1  0.32834848  0.36252280  0.32916610  1
  O  O282  1  0.29174312  0.44024335  0.28653682  1
  H  H283  1  0.28197818  0.40091615  0.10275683  1
  C  C284  1  0.31553401  0.30813375  0.26804943  1
  H  H285  1  0.37969486  0.32061273  0.37095917  1
  H  H286  1  0.25138275  0.33742286  0.14391606  1
  O  O287  1  0.25380559  0.42918656  0.17133379  1
  H  H288  1  0.42342076  0.35931107  0.05144874  1
  C  C289  1  0.31032822  0.35496537  0.28927482  1
  H  H290  1  0.49318327  0.45471360  0.06982606  1
  C  C291  1  0.34790024  0.08031606  0.88578928  1
  C  C292  1  0.34828679  0.09730344  0.78308544  1
  H  H293  1  0.39717219  0.07393883  0.78033948  1
  C  C294  1  0.35739838  0.10953229  0.57452302  1
  H  H295  1  0.34757736  0.17211075  0.62901993  1
  C  C296  1  0.31993086  0.14074727  0.60938134  1
  O  O297  1  0.40624352  0.06020985  0.87997121  1
  O  O298  1  0.31508121  0.08191203  0.92882550  1
  H  H299  1  0.41530711  0.11201583  0.57495204  1
  C  C300  1  0.31489300  0.10191581  0.83512116  1
  H  H301  1  0.32632165  0.18749501  0.83777979  1
  C  C302  1  0.31386922  0.07514564  0.54511907  1
  H  H303  1  0.45084109  0.17560025  0.81753347  1
  C  C304  1  0.44670826  0.19113927  0.77706452  1
  C  C305  1  0.41214360  0.23644147  0.76994656  1
  C  C306  1  0.43352790  0.22998248  0.67515854  1
  O  O307  1  0.47358681  0.04773273  0.98082118  1
  C  C308  1  0.32300036  0.12203222  0.73790493  1
  H  H309  1  0.35087101  0.11753809  0.69738843  1
  C  C310  1  0.34685615  0.22109501  0.85655854  1
  C  C311  1  0.46428962  0.18205829  0.67862645  1
  H  H312  1  0.42189078  0.19363961  0.57929788  1
  H  H313  1  0.47123048  0.23227044  0.88820816  1
  C  C314  1  0.47206313  0.16282865  0.73382439  1
  H  H315  1  0.49174206  0.08815431  0.82668638  1
  H  H316  1  0.25963481  0.21460601  0.56811677  1
  C  C317  1  0.34789389  0.04058995  0.50450444  1
  H  H318  1  0.42156809  0.24772472  0.63530094  1
  H  H319  1  0.44099229  0.13809338  0.97990604  1
  H  H320  1  0.33122245  0.19847226  0.93571365  1
  H  H321  1  0.31898783  0.16981763  0.50728553  1
  C  C322  1  0.26662496  0.24761483  0.53954096  1
  C  C323  1  0.35166360  0.22931704  0.91096936  1
  C  C324  1  0.26220886  0.15409219  0.74619073  1
  C  C325  1  0.48189732  0.19571924  0.57451345  1
  O  O326  1  0.48474922  0.16106101  0.63425835  1
  H  H327  1  0.46432021  0.33721730  0.65560776  1
  H  H328  1  0.30551646  0.32899266  0.55602727  1
  H  H329  1  0.28719357  0.28915597  0.61418993  1
  O  O330  1  0.49941335  0.43586073  0.98527616  1
  C  C331  1  0.37776957  0.27409128  0.94160681  1
  C  C332  1  0.40752579  0.30300392  0.84639225  1
  C  C333  1  0.29752197  0.39017765  0.65608109  1
  C  C334  1  0.40190300  0.31046773  0.90166698  1
  C  C335  1  0.40689406  0.25868416  0.71704308  1
  C  C336  1  0.30001952  0.31215150  0.70593851  1
  H  H337  1  0.45823451  0.49484321  0.93660219  1
  C  C338  1  0.37448979  0.30766412  0.69974663  1
  C  C339  1  0.26114096  0.35134211  0.68336991  1
  H  H340  1  0.43003581  0.33173869  0.81932439  1
  O  O341  1  0.37497742  0.28306697  0.99101964  1
  C  C342  1  0.38220952  0.25782901  0.82142712  1
  H  H343  1  0.38896275  0.41483089  0.62513220  1
  O  O344  1  0.28370326  0.45997876  0.59816209  1
  C  C345  1  0.40876521  0.34421737  0.66795981  1
  H  H346  1  0.27604021  0.27990997  0.72431503  1
  C  C347  1  0.37028493  0.38364329  0.64782559  1
  C  C348  1  0.25616645  0.42776093  0.62929984  1
  H  H349  1  0.41613826  0.34731546  0.91715059  1
  C  C350  1  0.27295048  0.29749567  0.57153472  1
  H  H351  1  0.46194310  0.27257682  0.56743568  1
  H  H352  1  0.41622348  0.47264542  0.79520541  1
  O  O353  1  0.46450951  0.46008846  0.78812301  1
  C  C354  1  0.30281432  0.66111002  0.07272289  1
  O  O355  1  0.31085938  0.62044614  0.10056929  1
  H  H356  1  0.37625105  0.65071985  0.17058615  1
  C  C357  1  0.32674885  0.62978168  0.16727676  1
  C  C358  1  0.30804626  0.70654762  0.10099023  1
  C  C359  1  0.32304539  0.58471906  0.20198771  1
  H  H360  1  0.36761448  0.55855850  0.19034375  1
  H  H361  1  0.32588685  0.70687228  0.14288702  1
  C  C362  1  0.28412208  0.66039991  0.01512147  1
  H  H363  1  0.44459552  0.53693267  0.02788372  1
  H  H364  1  0.32870072  0.56430732  0.04393249  1
  H  H365  1  0.45073293  0.57938612  0.19235440  1
  O  O366  1  0.31098761  0.57908516  0.26272220  1
  H  H367  1  0.35150923  0.52239608  0.30389197  1
  C  C368  1  0.47806658  0.73070705  0.16709520  1
  C  C369  1  0.47560323  0.71278564  0.22204938  1
  C  C370  1  0.27965161  0.56605787  0.01943982  1
  H  H371  1  0.48067080  0.67189618  0.23068162  1
  H  H372  1  0.45524070  0.73404305  0.30772834  1
  H  H373  1  0.27221288  0.56375519  0.19146404  1
  C  C374  1  0.48220512  0.64571938  0.13005371  1
  C  C375  1  0.48523717  0.69565236  0.11956191  1
  H  H376  1  0.47618422  0.63626757  0.17220877  1
  H  H377  1  0.25846083  0.50095221  0.08976710  1
  C  C378  1  0.48863133  0.55291990  0.17461756  1
  C  C379  1  0.48896990  0.60544267  0.09319122  1
  C  C380  1  0.30187906  0.53455308  0.28575408  1
  O  O381  1  0.49151001  0.55957661  0.11110010  1
  H  H382  1  0.27573612  0.69322232  0.28437179  1
  H  H383  1  0.26088782  0.53572113  0.31824280  1
  C  C384  1  0.47879175  0.50131020  0.19991012  1
  C  C385  1  0.49859504  0.70934493  0.06358234  1
  H  H386  1  0.27991128  0.65416583  0.17260144  1
  C  C387  1  0.46214691  0.74713412  0.26340415  1
  C  C388  1  0.49622921  0.53381166  0.00674330  1
  C  C389  1  0.27741796  0.75182362  0.01840926  1
  C  C390  1  0.29958019  0.75145931  0.07555465  1
  Zn  Zn391  1  0.39995528  0.94448609  0.31119102  1
  H  H392  1  0.47246036  0.79233841  0.11468426  1
  H  H393  1  0.40397469  0.77098279  0.02619952  1
  O  O394  1  0.28929462  0.96936420  0.19200684  1
  C  C395  1  0.47443657  0.83430944  0.00335639  1
  Zn  Zn396  1  0.34694175  0.94565882  0.45102302  1
  O  O397  1  0.31313392  0.92349760  0.26291646  1
  C  C398  1  0.30979421  0.88172225  0.11997691  1
  C  C399  1  0.30534119  0.88237913  0.17785192  1
  C  C400  1  0.30567890  0.79202457  0.17457546  1
  H  H401  1  0.30102103  0.75684987  0.19498711  1
  O  O402  1  0.40757356  0.98054566  0.39137429  1
  C  C403  1  0.46074782  0.79798081  0.25516313  1
  H  H404  1  0.45686960  0.85446488  0.19161087  1
  C  C405  1  0.46330567  0.81495643  0.20060828  1
  H  H406  1  0.30903675  0.91807606  0.09779839  1
  O  O407  1  0.44522789  0.81453598  0.34887200  1
  C  C408  1  0.30643856  0.79260607  0.11634326  1
  C  C409  1  0.27439682  0.95786058  0.00617654  1
  O  O410  1  0.29685234  0.75729489  0.36330574  1
  O  O411  1  0.33376654  0.82277762  0.48287222  1
  C  C412  1  0.45230829  0.83257438  0.30315014  1
  O  O413  1  0.34443913  0.89070502  0.38682017  1
  H  H414  1  0.31298212  0.84321267  0.04536968  1
  H  H415  1  0.30287803  0.83742284  0.24863159  1
  Zn  Zn416  1  0.34190495  0.81828842  0.39502838  1
  C  C417  1  0.31566291  0.83907474  0.09015247  1
  O  O418  1  0.46045610  0.87748321  0.29565200  1
  C  C419  1  0.45795054  0.78693394  0.02512872  1
  H  H420  1  0.45538328  0.96673500  0.39395594  1
  C  C421  1  0.30306791  0.92733432  0.21211047  1
  H  H422  1  0.29830561  0.89175640  0.37239684  1
  C  C423  1  0.30458282  0.83604881  0.20388267  1
  C  C424  1  0.47211868  0.78262490  0.15737240  1
  C  C425  1  0.33067349  0.67347718  0.68147115  1
  H  H426  1  0.38823101  0.67209599  0.68300245  1
  C  C427  1  0.29197877  0.70085231  0.72137557  1
  H  H428  1  0.33004900  0.62327688  0.61204317  1
  C  C429  1  0.30941793  0.72785863  0.82486610  1
  C  C430  1  0.33308563  0.72202570  0.76938301  1
  C  C431  1  0.29616908  0.64269062  0.64295553  1
  C  C432  1  0.38568443  0.58741117  0.88247142  1
  C  C433  1  0.37405201  0.63496355  0.87963898  1
  H  H434  1  0.38174291  0.56155480  0.91887040  1
  O  O435  1  0.40612210  0.54364605  0.84929412  1
  H  H436  1  0.36317630  0.65862804  0.91528819  1
  C  C437  1  0.40412616  0.73525349  0.75648315  1
  H  H438  1  0.42776429  0.73015194  0.71495690  1
  H  H439  1  0.31380391  0.50108742  0.96768715  1
  H  H440  1  0.37969590  0.65635324  0.84087959  1
  C  C441  1  0.47607387  0.53627945  0.84530352  1
  H  H442  1  0.25500781  0.70857584  0.94989983  1
  C  C443  1  0.44949796  0.74974247  0.79896299  1
  H  H444  1  0.49377235  0.62652585  0.72840939  1
  C  C445  1  0.26977766  0.51603668  0.99147595  1
  C  C446  1  0.35872925  0.74336163  0.86549980  1
  H  H447  1  0.34390200  0.74747538  0.90876998  1
  C  C448  1  0.27310496  0.70719363  0.99249743  1
  O  O449  1  0.27309842  0.61874654  0.98941113  1
  C  C450  1  0.25265014  0.79114251  0.57063131  1
  C  C451  1  0.25874207  0.80128216  0.99465838  1
  C  C452  1  0.42836896  0.75383235  0.85240833  1
  C  C453  1  0.35439563  0.84223166  0.77871677  1
  O  O454  1  0.48033476  0.76950788  0.90408512  1
  C  C455  1  0.30846530  0.87733616  0.96259701  1
  H  H456  1  0.40423618  0.82932515  0.76303885  1
  O  O457  1  0.32765381  0.97850049  0.98846114  1
  Zn  Zn458  1  0.46825704  0.99385148  0.91133755  1
  O  O459  1  0.46442886  0.89830946  0.80644282  1
  C  C460  1  0.26208419  0.90435680  0.99691832  1
  H  H461  1  0.40225907  0.77163626  0.56794470  1
  C  C462  1  0.39258752  0.76779630  0.61359241  1
  H  H463  1  0.34371659  0.75046810  0.62732591  1
  H  H464  1  0.28100009  0.92058547  0.87963225  1
  H  H465  1  0.28367054  0.79359226  0.73140546  1
  H  H466  1  0.30297844  0.90139330  0.61860943  1
  H  H467  1  0.25230965  0.76771851  0.53440961  1
  H  H468  1  0.34644945  0.80991586  0.93111912  1
  C  C469  1  0.30777854  0.82639892  0.95838021  1
  C  C470  1  0.28383499  0.83687938  0.56933222  1
  C  C471  1  0.27830045  0.86603186  0.61669701  1
  O  O472  1  0.34519094  0.89701465  0.51968938  1
  C  C473  1  0.34788194  0.88227754  0.81679316  1
  O  O474  1  0.43656449  0.78698314  0.63954924  1
  C  C475  1  0.31964919  0.85415557  0.51778140  1
  C  C476  1  0.28294726  0.89581530  0.84307506  1
  C  C477  1  0.40941125  0.91025594  0.83101093  1
  H  H478  1  0.34995237  0.89757908  0.93889538  1
  C  C479  1  0.29043851  0.82184952  0.76223472  1
  O  O480  1  0.40319553  0.94541376  0.86521653  1
  H  H481  1  0.49912649  0.83082202  0.74093026  1
  H  H482  1  0.43377947  0.85646882  0.98558991  1
  C  C483  1  0.54749768  0.16244019  0.11523263  1
  H  H484  1  0.53382146  0.20551017  0.28682900  1
  H  H485  1  0.57208606  0.16831781  0.15499140  1
  H  H486  1  0.54112579  0.11772453  0.32454029  1
  H  H487  1  0.59099705  0.08818766  0.10326120  1
  C  C488  1  0.65720543  0.19278220  0.29769436  1
  C  C489  1  0.55917143  0.11762652  0.08730681  1
  C  C490  1  0.68326327  0.20507513  0.20188262  1
  C  C491  1  0.67757867  0.17370921  0.24695947  1
  O  O492  1  0.56753221  0.03352458  0.02822568  1
  O  O493  1  0.65227416  0.16231735  0.33954050  1
  C  C494  1  0.51206059  0.17342771  0.26427772  1
  C  C495  1  0.51231510  0.12667978  0.28592117  1
  C  C496  1  0.69933107  0.17887349  0.14942497  1
  C  C497  1  0.67607374  0.17226548  0.05324571  1
  C  C498  1  0.66894719  0.20116709  0.10054193  1
  H  H499  1  0.63248479  0.18553409  0.36826462  1
  O  O500  1  0.50603965  0.03175164  0.32832135  1
  C  C501  1  0.70811708  0.12523331  0.05538599  1
  H  H502  1  0.68528903  0.13514060  0.24358939  1
  H  H503  1  0.63765857  0.23459611  0.10089504  1
  C  C504  1  0.52041218  0.06320528  0.01483863  1
  C  C505  1  0.51609522  0.11249051  0.04074451  1
  C  C506  1  0.73571831  0.13252667  0.15184846  1
  C  C507  1  0.74173255  0.10733908  0.10330074  1
  C  C508  1  0.50636993  0.20027031  0.08942628  1
  H  H509  1  0.65427336  0.18212097  0.01225028  1
  C  C510  1  0.71222705  0.09493225  0.00424855  1
  O  O511  1  0.73182180  0.04959509  0.00732941  1
  C  C512  1  0.63330807  0.24313343  0.29988994  1
  O  O513  1  0.60321330  0.03246927  0.49378949  1
  H  H514  1  0.52343112  0.48182386  0.18241182  1
  H  H515  1  0.50256897  0.44264236  0.30868901  1
  H  H516  1  0.59386633  0.34192942  0.18630114  1
  C  C517  1  0.60454035  0.35941907  0.35733062  1
  H  H518  1  0.65520296  0.36042459  0.37487939  1
  H  H519  1  0.57176485  0.39270852  0.35932252  1
  C  C520  1  0.65697346  0.37746475  0.12154145  1
  H  H521  1  0.50518972  0.41379307  0.20292797  1
  C  C522  1  0.74657601  0.41657465  0.05523749  1
  O  O523  1  0.70614871  0.44876308  0.04180044  1
  H  H524  1  0.62550952  0.41101067  0.12502037  1
  C  C525  1  0.64352128  0.27257731  0.25221907  1
  O  O526  1  0.60520311  0.26262062  0.34373803  1
  C  C527  1  0.67965796  0.29560876  0.15877747  1
  C  C528  1  0.66588444  0.25798338  0.20192929  1
  C  C529  1  0.71671701  0.37227026  0.09049414  1
  C  C530  1  0.57691542  0.31775111  0.34210030  1
  H  H531  1  0.52649992  0.30717335  0.32069234  1
  H  H532  1  0.51703260  0.36008819  0.05020392  1
  C  C533  1  0.63632900  0.33941152  0.15736699  1
  H  H534  1  0.63614348  0.31185835  0.25855268  1
  C  C535  1  0.73863846  0.29055356  0.12297503  1
  H  H536  1  0.61027075  0.13249825  0.85770742  1
  C  C537  1  0.56160299  0.14817322  0.84113799  1
  H  H538  1  0.57233208  0.18250193  0.81737274  1
  H  H539  1  0.57647252  0.22161943  0.65015015  1
  H  H540  1  0.54705484  0.22764376  0.93462827  1
  H  H541  1  0.57449127  0.08188714  0.79069756  1
  O  O542  1  0.68805614  0.11049470  0.96147379  1
  H  H543  1  0.65498017  0.00690348  0.57630466  1
  C  C544  1  0.50566967  0.24831662  0.56468969  1
  H  H545  1  0.62379644  0.23937630  0.84099921  1
  C  C546  1  0.52890567  0.22207702  0.89211392  1
  O  O547  1  0.56063446  0.01526226  0.86403655  1
  H  H548  1  0.50521083  0.17167699  0.54412021  1
  C  C549  1  0.53195380  0.10885154  0.80244699  1
  O  O550  1  0.50422778  0.12090968  0.74228759  1
  O  O551  1  0.52636973  0.17091496  0.88792982  1
  Zn  Zn552  1  0.64854285  0.00162558  0.97789857  1
  C  C553  1  0.57673308  0.26317650  0.64820435  1
  H  H554  1  0.52706890  0.25043444  0.52247278  1
  C  C555  1  0.50201551  0.49732894  0.81148698  1
  O  O556  1  0.56765502  0.27467424  0.59320415  1
  H  H557  1  0.68478487  0.27199719  0.68074101  1
  H  H558  1  0.72683068  0.33618101  0.71452572  1
  C  C559  1  0.74631719  0.45455616  0.91749506  1
  H  H560  1  0.68479382  0.36983617  0.90626678  1
  H  H561  1  0.52035567  0.27561852  0.66136885  1
  C  C562  1  0.57096770  0.25657574  0.85292873  1
  C  C563  1  0.50390171  0.49020658  0.96690440  1
  H  H564  1  0.55506192  0.49325274  0.94264786  1
  C  C565  1  0.73717077  0.39837682  0.83869246  1
  H  H566  1  0.63479477  0.32907792  0.68453429  1
  O  O567  1  0.61805617  0.29101547  0.75193094  1
  C  C568  1  0.68944243  0.36495491  0.86183085  1
  H  H569  1  0.69066138  0.44884588  0.92574419  1
  C  C570  1  0.63178114  0.28641566  0.68707584  1
  C  C571  1  0.64799801  0.32900127  0.83924682  1
  O  O572  1  0.60006645  0.30556935  0.87282797  1
  C  C573  1  0.71231685  0.34731219  0.75607320  1
  H  H574  1  0.54133539  0.26782425  0.81556133  1
  C  C575  1  0.65755508  0.32125937  0.78185184  1
  C  C576  1  0.57424245  0.49582385  0.80089219  1
  H  H577  1  0.58983528  0.46763084  0.77265596  1
  H  H578  1  0.71189056  0.56909288  0.03277578  1
  H  H579  1  0.53942478  0.52768690  0.03895629  1
  C  C580  1  0.63701235  0.72254900  0.14635476  1
  C  C581  1  0.64964232  0.68475547  0.11343234  1
  H  H582  1  0.69216103  0.68610491  0.08166227  1
  H  H583  1  0.62203018  0.64918421  0.11461286  1
  H  H584  1  0.60360166  0.71970068  0.18247946  1
  C  C585  1  0.50449729  0.67078314  0.02760725  1
  H  H586  1  0.53978104  0.57126842  0.18762572  1
  C  C587  1  0.50534683  0.61937978  0.03858550  1
  H  H588  1  0.66710802  0.75783834  0.13985905  1
  H  H589  1  0.51270150  0.90174117  0.49949619  1
  C  C590  1  0.58965328  0.77797654  0.03493575  1
  C  C591  1  0.60156734  0.82430925  0.01421148  1
  H  H592  1  0.63222195  0.75384225  0.04972405  1
  H  H593  1  0.65739317  0.83811367  0.01095684  1
  C  C594  1  0.51920957  0.76054718  0.04169407  1
  C  C595  1  0.54227207  0.85420773  0.00138218  1
  O  O596  1  0.53259285  0.98551724  0.44754775  1
  C  C597  1  0.57651356  0.99403324  0.48541048  1
  C  C598  1  0.64651761  0.58687900  0.90201570  1
  C  C599  1  0.59810658  0.56041090  0.86280565  1
  C  C600  1  0.69584648  0.53491700  0.79421741  1
  C  C601  1  0.62509424  0.52963935  0.82064401  1
  H  H602  1  0.68143639  0.64909921  0.84540607  1
  C  C603  1  0.68608440  0.63095557  0.88751596  1
  O  O604  1  0.68028927  0.70458319  0.59490929  1
  C  C605  1  0.65870678  0.56311797  0.95395047  1
  H  H606  1  0.62731388  0.53169223  0.96903964  1
  C  C607  1  0.70404838  0.53036900  0.73722848  1
  H  H608  1  0.71117717  0.65397693  0.65360137  1
  C  C609  1  0.72033444  0.66603236  0.60802856  1
  H  H610  1  0.66177011  0.51394581  0.71131940  1
  H  H611  1  0.66538991  0.59007001  0.59913657  1
  C  C612  1  0.72701971  0.65384381  0.92544111  1
  H  H613  1  0.55330058  0.57291260  0.74037385  1
  O  O614  1  0.53982368  0.59548044  0.66404456  1
  C  C615  1  0.52676562  0.56382159  0.87475319  1
  C  C616  1  0.74023518  0.62864385  0.97444284  1
  C  C617  1  0.52998153  0.59942283  0.71105317  1
  H  H618  1  0.50845663  0.59070905  0.90695836  1
  H  H619  1  0.51752643  0.68581153  0.98620121  1
  H  H620  1  0.74839590  0.55479913  0.87490262  1
  C  C621  1  0.71148896  0.61306355  0.57928865  1
  H  H622  1  0.72327038  0.73207502  0.77965913  1
  H  H623  1  0.68806172  0.62280900  0.53771066  1
  C  C624  1  0.70438288  0.58551615  0.99160377  1
  O  O625  1  0.51187981  0.58927184  0.99686392  1
  O  O626  1  0.50333905  0.92944522  0.96716655  1
  O  O627  1  0.66349971  0.99722613  0.89518422  1
  C  C628  1  0.71512259  0.80102703  0.71203348  1
  C  C629  1  0.68567522  0.75404868  0.63048029  1
  C  C630  1  0.71873046  0.75739972  0.68039018  1
  C  C631  1  0.53853140  0.80585870  0.76139221  1
  O  O632  1  0.52663590  0.76399813  0.77749003  1
  C  C633  1  0.65024545  0.84225892  0.64062905  1
  H  H634  1  0.57833077  0.75888926  0.86151635  1
  O  O635  1  0.71023158  0.78828067  0.85417821  1
  C  C636  1  0.61033944  0.91691945  0.72340676  1
  C  C637  1  0.72153487  0.90208482  0.77397366  1
  C  C638  1  0.65248623  0.79697744  0.61057945  1
  C  C639  1  0.65159416  0.93589956  0.61385443  1
  C  C640  1  0.61580445  0.99276447  0.86020153  1
  H  H641  1  0.68865274  0.94450412  0.64714000  1
  C  C642  1  0.57140029  0.87545309  0.56931331  1
  H  H643  1  0.62603463  0.79691894  0.57069379  1
  C  C644  1  0.59222663  0.94957510  0.76523421  1
  C  C645  1  0.54535241  0.77965715  0.89402231  1
  Zn  Zn646  1  0.54102432  0.84820968  0.84280236  1
  C  C647  1  0.67281857  0.88786305  0.73087164  1
  H  H648  1  0.54392368  0.97114777  0.76633769  1
  C  C649  1  0.59029195  0.95524386  0.53089615  1
  C  C650  1  0.63511344  0.96890178  0.57338160  1
  C  C651  1  0.63469073  0.95737250  0.81213769  1
  C  C652  1  0.62465788  0.88613877  0.61046830  1
  C  C653  1  0.55410892  0.90710537  0.98539066  1
  H  H654  1  0.53652675  0.84179575  0.57106120  1
  O  O655  1  0.61550301  0.92484890  0.98787641  1
  H  H656  1  0.73369449  0.94241692  0.85362084  1
  H  H657  1  0.73267134  0.80158912  0.75447230  1
  C  C658  1  0.70124775  0.93575535  0.81520207  1
  H  H659  1  0.57417831  0.79313023  0.93119606  1
  H  H660  1  0.57455083  0.91045650  0.68803111  1
  C  C661  1  0.68755458  0.84662763  0.69248972  1
  H  H662  1  0.59326022  0.81586786  0.74521509  1
  C  C663  1  0.55538737  0.90897794  0.52852486  1
  C  C664  1  0.91439850  0.15381862  0.25282337  1
  H  H665  1  0.88121210  0.21072807  0.20053331  1
  C  C666  1  0.89818782  0.20340300  0.24259789  1
  O  O667  1  0.89830040  0.12130904  0.21303201  1
  H  H668  1  0.88406780  0.06467107  0.25884938  1
  C  C669  1  0.94699544  0.14239113  0.30389677  1
  C  C670  1  0.96347158  0.18227317  0.33742482  1
  C  C671  1  0.91952306  0.06966113  0.21922883  1
  H  H672  1  0.99488317  0.11711422  0.40184392  1
  C  C673  1  0.89335199  0.02487067  0.18460318  1
  O  O674  1  0.96593743  0.09665502  0.31958418  1
  C  C675  1  0.93962155  0.23127821  0.32816767  1
  H  H676  1  0.83901713  0.03318730  0.17066437  1
  H  H677  1  0.92375959  0.02491487  0.14588388  1
  H  H678  1  0.97572905  0.06487336  0.23230146  1
  H  H679  1  0.98804332  0.01910642  0.37842933  1
  H  H680  1  0.99007972  0.17546920  0.37605713  1
  H  H681  1  0.77153086  0.07197113  0.10081940  1
  H  H682  1  0.76110266  0.11777895  0.18896219  1
  C  C683  1  0.90437133  0.24251679  0.27876867  1
  H  H684  1  0.77087254  0.25931681  0.13521402  1
  C  C685  1  0.83797548  0.35406530  0.19819679  1
  C  C686  1  0.89431555  0.29585380  0.25950697  1
  O  O687  1  0.82411431  0.45952634  0.17455587  1
  C  C688  1  0.76024367  0.33090264  0.09099558  1
  C  C689  1  0.93457011  0.33375795  0.28108063  1
  H  H690  1  0.96087227  0.41389588  0.27900983  1
  H  H691  1  0.97230093  0.32731188  0.31189761  1
  O  O692  1  0.91545757  0.47567536  0.22626423  1
  C  C693  1  0.93969090  0.33660929  0.42750143  1
  C  C694  1  0.86924994  0.44618027  0.20795774  1
  C  C695  1  0.92909089  0.38203112  0.26156662  1
  H  H696  1  0.90209079  0.36441386  0.43881708  1
  H  H697  1  0.86315041  0.30145943  0.37385927  1
  C  C698  1  0.96626417  0.26572071  0.37189873  1
  C  C699  1  0.91913187  0.30178467  0.39017584  1
  H  H700  1  0.80822686  0.33179593  0.06612973  1
  C  C701  1  0.87766685  0.39246193  0.22202653  1
  O  O702  1  0.96572916  0.38430333  0.11290204  1
  O  O703  1  0.81261877  0.41894772  0.04436371  1
  H  H704  1  0.80156814  0.36282415  0.16575520  1
  H  H705  1  0.81298621  0.27437369  0.20240899  1
  H  H706  1  0.98138897  0.28991449  0.14518704  1
  Zn  Zn707  1  0.89414355  0.44876785  0.09036164  1
  C  C708  1  0.84167385  0.30600163  0.21811879  1
  H  H709  1  0.81132566  0.47222628  0.79028485  1
  H  H710  1  0.92637853  0.36246659  0.65231342  1
  C  C711  1  0.89922908  0.38738823  0.68219963  1
  C  C712  1  0.99451628  0.44609672  0.65995991  1
  C  C713  1  0.92876401  0.43413520  0.69294325  1
  H  H714  1  0.88466363  0.42457035  0.82952179  1
  C  C715  1  0.83759241  0.45063171  0.75725415  1
  C  C716  1  0.78746895  0.48499481  0.95284132  1
  C  C717  1  0.89462643  0.47270837  0.89458017  1
  C  C718  1  0.78037780  0.43366583  0.87260356  1
  C  C719  1  0.80859724  0.40275527  0.74550262  1
  C  C720  1  0.85437094  0.44133623  0.86403811  1
  C  C721  1  0.89762390  0.46767333  0.73043788  1
  C  C722  1  0.83954389  0.36884437  0.70951995  1
  C  C723  1  0.85823641  0.49191419  0.94064610  1
  H  H724  1  0.81993466  0.33155900  0.69630868  1
  H  H725  1  0.94882381  0.48109891  0.88163550  1
  C  C726  1  0.75214654  0.38275728  0.78298102  1
  Zn  Zn727  1  0.90309650  0.58916707  0.08362995  1
  H  H728  1  0.86109457  0.68840899  0.22653266  1
  O  O729  1  0.89772159  0.60880463  0.17592331  1
  C  C730  1  0.91306479  0.69280231  0.24423208  1
  O  O731  1  0.79619991  0.62537952  0.06125584  1
  O  O732  1  0.95393813  0.64001449  0.04325350  1
  C  C733  1  0.95583033  0.61166203  0.20310595  1
  C  C734  1  0.96481004  0.65602843  0.23768761  1
  C  C735  1  0.97374243  0.63415630  0.41776991  1
  H  H736  1  0.96461593  0.68688828  0.35237997  1
  H  H737  1  0.96292941  0.60207832  0.39374090  1
  Zn  Zn738  1  0.93044699  0.70569618  0.01986043  1
  C  C739  1  0.97567054  0.68160020  0.39509730  1
  C  C740  1  0.92268032  0.73396173  0.27783247  1
  C  C741  1  0.79026012  0.64694201  0.01756516  1
  O  O742  1  0.97498194  0.53660823  0.47665411  1
  O  O743  1  0.93052126  0.51890304  0.10550609  1
  C  C744  1  0.97563372  0.62496237  0.47478797  1
  H  H745  1  0.96659261  0.73342284  0.13038841  1
  Zn  Zn746  1  0.99814549  0.50451299  0.16427153  1
  C  C747  1  0.99098361  0.72610461  0.42490996  1
  C  C748  1  0.99345562  0.74083288  0.29860038  1
  O  O749  1  0.99937836  0.57781771  0.20097231  1
  O  O750  1  0.81140138  0.69040780  0.01013004  1
  C  C751  1  0.99938750  0.71587087  0.48209127  1
  O  O752  1  0.86109864  0.54470856  0.01393334  1
  H  H753  1  0.93860693  0.99692885  0.27903176  1
  O  O754  1  0.96693625  0.84610910  0.03150623  1
  O  O755  1  0.99277269  0.91981691  0.33635365  1
  C  C756  1  0.99786574  0.83343216  0.32102348  1
  H  H757  1  0.98901228  0.83618194  0.27666679  1
  H  H758  1  0.87971598  0.76158964  0.28490038  1
  C  C759  1  0.96121766  0.97226275  0.24364044  1
  H  H760  1  0.97871452  0.96061309  0.41237468  1
  C  C761  1  0.99715017  0.78405589  0.33753011  1
  H  H762  1  0.94060017  0.89578379  0.27181413  1
  C  C763  1  0.99653381  0.87599799  0.35535032  1
  O  O764  1  0.91306540  0.97485752  0.19900083  1
  O  O765  1  0.91699259  0.77612133  0.05065629  1
  C  C766  1  0.98412852  0.92370560  0.26836615  1
  C  C767  1  0.96226919  0.80958845  0.06002674  1
  C  C768  1  0.99572668  0.77408314  0.39458975  1
  C  C769  1  0.88924473  0.58252706  0.71718373  1
  O  O770  1  0.89566462  0.57171378  0.66748526  1
  Zn  Zn771  1  0.87333459  0.60073682  0.59032700  1
  C  C772  1  0.82121450  0.56601147  0.74477103  1
  O  O773  1  0.93669678  0.60296017  0.74121959  1
  C  C774  1  0.81324975  0.56586951  0.80328965  1
  O  O775  1  0.88712645  0.67631380  0.59315824  1
  H  H776  1  0.85847073  0.57832285  0.83037156  1
  C  C777  1  0.89852455  0.52601870  0.97636767  1
  C  C778  1  0.80319570  0.67338348  0.79769449  1
  O  O779  1  0.83924899  0.68215183  0.84481001  1
  H  H780  1  0.84690292  0.65745674  0.77210305  1
  C  C781  1  0.89909520  0.69964515  0.63946032  1
  H  H782  1  0.89709101  0.66907042  0.66783625  1
  C  C783  1  0.87469093  0.73178163  0.85147501  1
  H  H784  1  0.89555526  0.73441084  0.89271185  1
  C  C785  1  0.77099485  0.71582332  0.75969156  1
  O  O786  1  0.76214971  0.58276516  0.57840781  1
  H  H787  1  0.77520517  0.54360302  0.66834435  1
  O  O788  1  0.97104620  0.57175326  0.55552294  1
  H  H789  1  0.77502940  0.68159022  0.61038544  1
  C  C790  1  0.76650099  0.54869310  0.71282873  1
  O  O791  1  0.96279745  0.53613863  0.97106956  1
  C  C792  1  0.96827694  0.72906857  0.65360656  1
  H  H793  1  0.93510214  0.70741679  0.78384140  1
  O  O794  1  0.97567113  0.73976774  0.70850913  1
  H  H795  1  0.75681200  0.68790867  0.91941893  1
  H  H796  1  0.76679668  0.64146391  0.80348313  1
  C  C797  1  0.93371317  0.74143466  0.81046758  1
  H  H798  1  0.84668153  0.72203439  0.64263485  1
  H  H799  1  0.91705676  0.50552983  0.73647041  1
  O  O800  1  0.75298810  0.71113608  0.70615459  1
  H  H801  1  0.81571568  0.74227118  0.75858505  1
  H  H802  1  0.76421290  0.50495827  0.98875575  1
  C  C803  1  0.75307119  0.55301907  0.82898377  1
  H  H804  1  0.99644584  0.66118939  0.54976898  1
  C  C805  1  0.97492132  0.57580038  0.50419593  1
  C  C806  1  0.98615511  0.66893941  0.50525985  1
  H  H807  1  0.83571767  0.76295274  0.84970374  1
  H  H808  1  0.91526446  0.77141642  0.78006612  1
  O  O809  1  0.75231897  0.81187678  0.88294826  1
  H  H810  1  0.77151793  0.88280585  0.77841553  1
  H  H811  1  0.97220280  0.76395036  0.62894666  1
