# generated using pymatgen
data_Zn4H30C54O13
_symmetry_space_group_name_H-M   'P 1'
_cell_length_a   24.66033839
_cell_length_b   16.57757631
_cell_length_c   27.93233223
_cell_angle_alpha   90.00000000
_cell_angle_beta   90.00000000
_cell_angle_gamma   90.00000000
_symmetry_Int_Tables_number   1
_chemical_formula_structural   Zn4H30C54O13
_chemical_formula_sum   'Zn32 H240 C432 O104'
_cell_volume   11418.97879253
_cell_formula_units_Z   8
loop_
 _symmetry_equiv_pos_site_id
 _symmetry_equiv_pos_as_xyz
  1  'x, y, z'
loop_
 _atom_site_type_symbol
 _atom_site_label
 _atom_site_symmetry_multiplicity
 _atom_site_fract_x
 _atom_site_fract_y
 _atom_site_fract_z
 _atom_site_occupancy
  C  C0  1  0.15593149  0.07740254  0.17318594  1
  O  O1  1  0.11911747  0.12651628  0.15997335  1
  H  H2  1  0.20509973  0.21351592  0.13953541  1
  Zn  Zn3  1  0.05688582  0.09508229  0.11456650  1
  C  C4  1  0.03702750  0.05582180  0.04797842  1
  C  C5  1  0.03906413  0.10857041  0.00917539  1
  H  H6  1  0.05832949  0.17226247  0.00899854  1
  C  C7  1  0.21489223  0.08636689  0.16559520  1
  C  C8  1  0.23320436  0.16219515  0.14434742  1
  O  O9  1  0.03640372  0.24190316  0.10525589  1
  H  H10  1  0.24067846  0.03529674  0.09036222  1
  C  C11  1  0.02783674  0.48548249  0.23051838  1
  C  C12  1  0.00300508  0.40816222  0.23384863  1
  H  H13  1  0.01551234  0.39839746  0.10754229  1
  C  C14  1  0.08107197  0.49821568  0.24908671  1
  C  C15  1  0.24940211  0.02151466  0.17475978  1
  H  H16  1  0.24311931  0.08449049  0.00571742  1
  O  O17  1  0.13829901  0.01356933  0.19323346  1
  C  C18  1  0.08528312  0.36210668  0.28501021  1
  O  O19  1  0.23976430  0.02096651  0.36617662  1
  C  C20  1  0.09740378  0.37611592  0.42739986  1
  C  C21  1  0.03457580  0.13644265  0.34633477  1
  H  H22  1  0.00062545  0.35336148  0.37471861  1
  C  C23  1  0.00672039  0.20787309  0.35522257  1
  C  C24  1  0.00701844  0.07679728  0.32165757  1
  H  H25  1  0.10526640  0.31802621  0.30481742  1
  H  H26  1  0.01305160  0.47111582  0.31808631  1
  C  C27  1  0.24382233  0.04987055  0.32533292  1
  Zn  Zn28  1  0.23083187  0.11021346  0.42991582  1
  C  C29  1  0.10790486  0.43871264  0.27580801  1
  O  O30  1  0.01310290  0.35587523  0.46222899  1
  C  C31  1  0.03341453  0.34526118  0.25997967  1
  C  C32  1  0.05372411  0.32452596  0.44794953  1
  O  O33  1  0.15186599  0.10601841  0.44206565  1
  H  H34  1  0.02510918  0.25920216  0.36907619  1
  C  C35  1  0.18499366  0.45098899  0.38730319  1
  H  H36  1  0.07720241  0.12397310  0.35615919  1
  C  C37  1  0.18571876  0.36641066  0.39513684  1
  O  O38  1  0.05619080  0.24563297  0.44267060  1
  H  H39  1  0.13654470  0.26115287  0.41496770  1
  O  O40  1  0.20263419  0.06051976  0.29904164  1
  H  H41  1  0.22673372  0.33863320  0.38567714  1
  C  C42  1  0.09517224  0.46062276  0.42103760  1
  C  C43  1  0.14058334  0.32697304  0.41332589  1
  H  H44  1  0.14098794  0.06359955  0.46420608  1
  H  H45  1  0.14602747  0.44935682  0.29538494  1
  Zn  Zn46  1  0.10941626  0.18059560  0.48330179  1
  C  C47  1  0.23971303  0.49220285  0.38141376  1
  C  C48  1  0.13664673  0.49865947  0.39775664  1
  H  H49  1  0.05905684  0.49516831  0.42389456  1
  H  H50  1  0.14579896  0.43143584  0.49620798  1
  C  C51  1  0.04101511  0.25740131  0.66029038  1
  C  C52  1  0.03875679  0.34161117  0.64803044  1
  H  H53  1  0.05382665  0.39192165  0.67071432  1
  C  C54  1  0.07477404  0.23550183  0.70297339  1
  C  C55  1  0.19495820  0.29666359  0.53782180  1
  O  O56  1  0.12565097  0.08836979  0.55082152  1
  C  C57  1  0.21648589  0.38275977  0.53746596  1
  H  H58  1  0.10616437  0.36093283  0.70904024  1
  H  H59  1  0.04558391  0.10687555  0.70707719  1
  H  H60  1  0.12574062  0.39550813  0.62831678  1
  C  C61  1  0.16668412  0.38918591  0.64490694  1
  C  C62  1  0.19635658  0.45447400  0.66295454  1
  H  H63  1  0.16881454  0.26128918  0.63565093  1
  C  C64  1  0.17028287  0.06255414  0.56273151  1
  C  C65  1  0.19002076  0.31210580  0.64959551  1
  C  C66  1  0.10903061  0.29888647  0.72178034  1
  O  O67  1  0.22408112  0.24310559  0.55493611  1
  Zn  Zn68  1  0.21436015  0.13204145  0.60857804  1
  C  C69  1  0.18569836  0.44333476  0.51511304  1
  O  O70  1  0.14792923  0.28069207  0.52496078  1
  C  C71  1  0.00834513  0.45185411  0.59069348  1
  C  C72  1  0.07134661  0.15513814  0.72148051  1
  C  C73  1  0.01885579  0.19640896  0.62963940  1
  H  H74  1  0.02130361  0.13212766  0.63821984  1
  H  H75  1  0.09723253  0.47565694  0.60319693  1
  C  C76  1  0.01431598  0.36174181  0.60469040  1
  C  C77  1  0.23570589  0.30333440  0.67943079  1
  O  O78  1  0.23329541  0.15758199  0.68254742  1
  C  C79  1  0.24772774  0.44942833  0.68747314  1
  C  C80  1  0.04830101  0.47987983  0.74659687  1
  C  C81  1  0.05580777  0.49866080  0.59232603  1
  O  O82  1  0.14578065  0.49405394  0.79794792  1
  H  H83  1  0.02953291  0.33362407  0.98906084  1
  O  O84  1  0.21894902  0.23269292  0.82640016  1
  C  C85  1  0.18195971  0.17990454  0.81440020  1
  H  H86  1  0.02101652  0.12488022  0.93315131  1
  Zn  Zn87  1  0.24013285  0.02036019  0.82924682  1
  C  C88  1  0.07884139  0.27914822  0.93424096  1
  H  H89  1  0.17268084  0.32669643  0.77279764  1
  C  C90  1  0.02953849  0.30001547  0.95453543  1
  C  C91  1  0.02068830  0.08310916  0.96386715  1
  C  C92  1  0.14487895  0.28079248  0.75763588  1
  C  C93  1  0.10329790  0.14169532  0.76141575  1
  C  C94  1  0.13008289  0.31002111  0.95977951  1
  H  H95  1  0.03747811  0.17002700  0.83442604  1
  C  C96  1  0.14020738  0.20280684  0.77935169  1
  C  C97  1  0.08155429  0.23325986  0.89209232  1
  O  O98  1  0.17501317  0.29615020  0.93977578  1
  O  O99  1  0.18275392  0.11268805  0.83247703  1
  C  C100  1  0.11729791  0.43790774  0.80761677  1
  C  C101  1  0.03638840  0.20911243  0.86662797  1
  H  H102  1  0.10289717  0.07650368  0.77550775  1
  C  C103  1  0.03385806  0.35873669  0.79859410  1
  C  C104  1  0.06300904  0.42609314  0.78256053  1
  H  H105  1  0.12111342  0.21729535  0.87399394  1
  Zn  Zn106  1  0.20132624  0.34195429  0.86870332  1
  H  H107  1  0.04274034  0.32461830  0.83095530  1
  O  O108  1  0.13212802  0.38649641  0.83779015  1
  O  O109  1  0.12400917  0.34752299  0.99573599  1
  H  H110  1  0.18039482  0.92504556  0.12530966  1
  C  C111  1  0.21001077  0.87709485  0.13150148  1
  C  C112  1  0.20159588  0.81736359  0.16838232  1
  O  O113  1  0.08129537  0.63194495  0.21514556  1
  H  H114  1  0.11081964  0.82631747  0.19568244  1
  O  O115  1  0.02989215  0.82811407  0.20973095  1
  H  H116  1  0.00979431  0.53173064  0.20759032  1
  C  C117  1  0.15534184  0.81352869  0.20854157  1
  Zn  Zn118  1  0.21110417  0.70011957  0.21758651  1
  O  O119  1  0.01786297  0.88129933  0.13946864  1
  H  H120  1  0.23657214  0.96798419  0.19271247  1
  H  H121  1  0.01538236  0.93758266  0.07824619  1
  C  C122  1  0.01655132  0.97727408  0.04471279  1
  Zn  Zn123  1  0.02210364  0.71994708  0.24225442  1
  C  C124  1  0.10573990  0.57975172  0.24153772  1
  O  O125  1  0.15712937  0.84617955  0.24737588  1
  C  C126  1  0.24771193  0.76487871  0.16343373  1
  O  O127  1  0.00533111  0.94324024  0.29985886  1
  Zn  Zn128  1  0.14892350  0.97552581  0.26557965  1
  O  O129  1  0.08550404  0.98836141  0.31773466  1
  O  O130  1  0.00836561  0.80086825  0.37660714  1
  H  H131  1  0.13761651  0.56161234  0.38934017  1
  C  C132  1  0.02505511  0.74194894  0.34977679  1
  H  H133  1  0.05625741  0.60929244  0.30658130  1
  C  C134  1  0.00533045  0.52115709  0.34459157  1
  C  C135  1  0.00815924  0.65897010  0.36655820  1
  O  O136  1  0.05495792  0.75344842  0.31566189  1
  O  O137  1  0.15152815  0.59804567  0.25532615  1
  C  C138  1  0.02932061  0.59684507  0.33704993  1
  H  H139  1  0.23437180  0.54131269  0.30698662  1
  C  C140  1  0.03509158  0.99916941  0.31227790  1
  H  H141  1  0.18958096  0.82349017  0.49328648  1
  C  C142  1  0.06632206  0.86883094  0.65692811  1
  C  C143  1  0.11568413  0.90083363  0.64129945  1
  C  C144  1  0.18008022  0.93549139  0.52389217  1
  C  C145  1  0.20433095  0.68172082  0.65855707  1
  H  H146  1  0.09205900  0.61575504  0.58286389  1
  C  C147  1  0.05541608  0.83978000  0.70335983  1
  C  C148  1  0.17510507  0.54122433  0.66126693  1
  C  C149  1  0.05567276  0.57829056  0.57850082  1
  O  O150  1  0.04781747  0.74527359  0.56053353  1
  C  C151  1  0.15198708  0.70452623  0.67200853  1
  C  C152  1  0.12064923  0.56076437  0.66952710  1
  C  C153  1  0.14100654  0.90716545  0.72429861  1
  C  C154  1  0.11031620  0.64491026  0.67529214  1
  H  H155  1  0.14237106  0.76621147  0.68045850  1
  C  C156  1  0.15637833  0.91847200  0.67501239  1
  H  H157  1  0.21349382  0.70062927  0.53247193  1
  H  H158  1  0.12288993  0.90860989  0.60228515  1
  C  C159  1  0.01733428  0.69913808  0.53891114  1
  C  C160  1  0.01002113  0.61158602  0.55569723  1
  C  C161  1  0.05714408  0.66446578  0.70000699  1
  C  C162  1  0.21705354  0.59807851  0.65193576  1
  C  C163  1  0.20956599  0.86670373  0.51573656  1
  H  H164  1  0.01819002  0.80549759  0.71287853  1
  H  H165  1  0.22446364  0.85340238  0.62894608  1
  C  C166  1  0.20453496  0.99335110  0.55519536  1
  H  H167  1  0.14084144  0.94763209  0.50593136  1
  C  C168  1  0.09496615  0.86562763  0.73895142  1
  H  H169  1  0.00418953  0.65993669  0.63576976  1
  H  H170  1  0.08926588  0.51684784  0.68144748  1
  H  H171  1  0.17816638  0.57289103  0.50113933  1
  C  C172  1  0.24898321  0.82786017  0.65675926  1
  C  C173  1  0.20263536  0.52273192  0.51716614  1
  C  C174  1  0.00578995  0.66820254  0.67681433  1
  Zn  Zn175  1  0.00791813  0.84854257  0.60398295  1
  H  H176  1  0.07021211  0.53658701  0.73882453  1
  H  H177  1  0.19161709  0.95477700  0.66600814  1
  O  O178  1  0.22415779  0.96764083  0.75797634  1
  C  C179  1  0.06825010  0.67238639  0.75045620  1
  C  C180  1  0.02300091  0.68691360  0.77923089  1
  H  H181  1  0.02285284  0.68549170  0.81842019  1
  H  H182  1  0.10583531  0.65551180  0.77077310  1
  C  C183  1  0.17882967  0.93487496  0.76479504  1
  H  H184  1  0.09141902  0.85029512  0.77866060  1
  O  O185  1  0.16464438  0.92706090  0.80594920  1
  C  C186  1  0.41330200  0.18271896  0.12148748  1
  C  C187  1  0.45789881  0.20492914  0.09141710  1
  H  H188  1  0.40220928  0.21394802  0.15429028  1
  C  C189  1  0.37850358  0.11803599  0.10748430  1
  C  C190  1  0.38758594  0.06681743  0.06746196  1
  H  H191  1  0.34972370  0.16519411  0.20553234  1
  C  C192  1  0.30343135  0.03485243  0.16070574  1
  C  C193  1  0.32591280  0.10359250  0.13629339  1
  C  C194  1  0.43205618  0.09013710  0.03843938  1
  C  C195  1  0.46406620  0.16052176  0.04784840  1
  C  C196  1  0.28598803  0.16810314  0.12981806  1
  C  C197  1  0.48435036  0.34193028  0.06206498  1
  H  H198  1  0.29735375  0.22203117  0.10901262  1
  H  H199  1  0.35922690  0.01885764  0.05516299  1
  H  H200  1  0.33123795  0.47460617  0.24637305  1
  C  C201  1  0.48025167  0.28929210  0.10218972  1
  H  H202  1  0.46889633  0.31930729  0.02678927  1
  C  C203  1  0.34668771  0.14346431  0.24171829  1
  H  H204  1  0.49655340  0.17713241  0.02327934  1
  H  H205  1  0.26000265  0.12035913  0.23903296  1
  C  C206  1  0.25779134  0.02426410  0.01343764  1
  C  C207  1  0.36961342  0.49865350  0.46067000  1
  C  C208  1  0.48778475  0.11020801  0.25812259  1
  C  C209  1  0.39174587  0.14561111  0.27548617  1
  H  H210  1  0.47053204  0.04633124  0.26384897  1
  C  C211  1  0.33386365  0.07057631  0.47249718  1
  C  C212  1  0.46333943  0.32237482  0.43393216  1
  H  H213  1  0.33046370  0.38434959  0.48900633  1
  C  C214  1  0.41539616  0.15863124  0.46338036  1
  H  H215  1  0.31432614  0.01651303  0.48553089  1
  C  C216  1  0.46872976  0.25640568  0.26916987  1
  H  H217  1  0.44010411  0.30931870  0.27636089  1
  O  O218  1  0.49458323  0.49043428  0.30025714  1
  C  C219  1  0.44955484  0.17195772  0.26663076  1
  C  C220  1  0.29719666  0.11695122  0.25985822  1
  C  C221  1  0.38777192  0.10678791  0.32059117  1
  C  C222  1  0.33997195  0.07283723  0.33900350  1
  C  C223  1  0.30880748  0.12868213  0.44480050  1
  C  C224  1  0.48931280  0.48985986  0.34547960  1
  C  C225  1  0.45826634  0.42029037  0.37054217  1
  H  H226  1  0.26227445  0.46031280  0.45435714  1
  H  H227  1  0.33869527  0.04432018  0.37573893  1
  C  C228  1  0.39125505  0.08920349  0.48114863  1
  H  H229  1  0.35753389  0.28723164  0.35376184  1
  H  H230  1  0.48231426  0.29867962  0.46515351  1
  H  H231  1  0.40079325  0.40300714  0.31239458  1
  C  C232  1  0.33066396  0.19706501  0.42229586  1
  H  H233  1  0.45885753  0.16944390  0.47073572  1
  C  C234  1  0.38769565  0.21003866  0.43105818  1
  C  C235  1  0.41689111  0.28325231  0.41188300  1
  C  C236  1  0.29657769  0.08128129  0.30752564  1
  C  C237  1  0.39339422  0.31584650  0.36968943  1
  H  H238  1  0.30422273  0.23919275  0.39863772  1
  C  C239  1  0.47715094  0.39651169  0.41730819  1
  C  C240  1  0.27519297  0.48704338  0.42119663  1
  C  C241  1  0.41705830  0.38176351  0.34606444  1
  H  H242  1  0.42538126  0.10399315  0.34030570  1
  C  C243  1  0.36182584  0.43540566  0.49499792  1
  O  O244  1  0.30124518  0.21839352  0.71769379  1
  H  H245  1  0.38965724  0.38067770  0.56433512  1
  C  C246  1  0.45604979  0.05218850  0.55137534  1
  H  H247  1  0.31674819  0.49315570  0.58829620  1
  C  C248  1  0.39145600  0.43080081  0.53696110  1
  H  H249  1  0.30404760  0.36316090  0.71320645  1
  H  H250  1  0.28903454  0.35192158  0.57967711  1
  C  C251  1  0.27998444  0.47869572  0.56874208  1
  C  C252  1  0.26657609  0.37028817  0.69456821  1
  C  C253  1  0.26415538  0.39765076  0.56337668  1
  O  O254  1  0.44613140  0.47595560  0.62859086  1
  H  H255  1  0.45673162  0.11476027  0.56453503  1
  O  O256  1  0.27988322  0.03868995  0.60409291  1
  C  C257  1  0.25888878  0.22029778  0.69356520  1
  C  C258  1  0.42563239  0.03083272  0.50896753  1
  C  C259  1  0.42932252  0.49439029  0.54435586  1
  H  H260  1  0.49687697  0.32178802  0.95134732  1
  C  C261  1  0.36637125  0.42669802  0.85115959  1
  C  C262  1  0.42799785  0.49090481  0.90744973  1
  C  C263  1  0.40563271  0.41280750  0.81575799  1
  H  H264  1  0.34157125  0.47325840  0.92168468  1
  C  C265  1  0.44154134  0.04423608  0.99042184  1
  C  C266  1  0.47784837  0.21543246  0.84370388  1
  C  C267  1  0.49714936  0.04036352  0.97306843  1
  O  O268  1  0.25330612  0.07032081  0.91644228  1
  Zn  Zn269  1  0.37949707  0.04457080  0.77662385  1
  O  O270  1  0.27518648  0.40448907  0.87344042  1
  C  C271  1  0.43003238  0.19890158  0.81170462  1
  H  H272  1  0.29382613  0.10414052  0.76522022  1
  C  C273  1  0.46599752  0.26363679  0.88520765  1
  C  C274  1  0.39815004  0.01795591  0.96280506  1
  C  C275  1  0.45824390  0.43809119  0.82792471  1
  O  O276  1  0.30697270  0.08836940  0.79799276  1
  O  O277  1  0.43900373  0.14897909  0.77938217  1
  Zn  Zn278  1  0.30404473  0.22270871  0.79299511  1
  O  O279  1  0.30302600  0.36164820  0.80150744  1
  H  H280  1  0.49315125  0.42452387  0.80127808  1
  H  H281  1  0.39602859  0.38414712  0.78284811  1
  H  H282  1  0.42462598  0.27999658  0.88847515  1
  C  C283  1  0.31032900  0.39854901  0.84105969  1
  H  H284  1  0.35607355  0.01966563  0.97464576  1
  C  C285  1  0.37612608  0.46449248  0.89635059  1
  O  O286  1  0.38502422  0.23271096  0.81847918  1
  C  C287  1  0.46810867  0.48172828  0.87122785  1
  C  C288  1  0.26789529  0.00127292  0.92539439  1
  C  C289  1  0.37335834  0.65605298  0.20490030  1
  C  C290  1  0.39790958  0.69682012  0.16177032  1
  O  O291  1  0.41132120  0.65229217  0.12749285  1
  O  O292  1  0.40364864  0.77182007  0.15964594  1
  Zn  Zn293  1  0.47868040  0.68776722  0.07553028  1
  Zn  Zn294  1  0.47957795  0.81103400  0.19538175  1
  H  H295  1  0.31781014  0.75523972  0.11661918  1
  H  H296  1  0.31998430  0.81089744  0.04074315  1
  C  C297  1  0.30101269  0.86748122  0.02853657  1
  C  C298  1  0.27812794  0.91551653  0.06632475  1
  O  O299  1  0.42733269  0.71596244  0.02098390  1
  C  C300  1  0.36388682  0.57441236  0.20489308  1
  C  C301  1  0.25543420  0.99532486  0.05962741  1
  C  C302  1  0.28090579  0.78671900  0.12799021  1
  C  C303  1  0.25912525  0.86250779  0.10721063  1
  C  C304  1  0.35897333  0.70741852  0.24353878  1
  H  H305  1  0.36287273  0.77611673  0.23970428  1
  C  C306  1  0.34590584  0.53765031  0.24719682  1
  H  H307  1  0.37594723  0.54176778  0.17141887  1
  H  H308  1  0.33202251  0.98690331  0.16651986  1
  C  C309  1  0.35212581  0.53920250  0.37415327  1
  H  H310  1  0.39482503  0.55294568  0.36995084  1
  H  H311  1  0.49906173  0.89749706  0.38605051  1
  O  O312  1  0.44712623  0.82861466  0.26420410  1
  O  O313  1  0.44155307  0.92227520  0.31990835  1
  C  C314  1  0.25902204  0.52662053  0.33721145  1
  C  C315  1  0.34012084  0.58126761  0.28957665  1
  O  O316  1  0.45012638  0.70583455  0.47922610  1
  C  C317  1  0.46441846  0.86628317  0.30033938  1
  O  O318  1  0.48090908  0.71730665  0.44393181  1
  H  H319  1  0.42228185  0.60199914  0.43573232  1
  C  C320  1  0.34709875  0.66759777  0.28680514  1
  H  H321  1  0.41162771  0.93594277  0.45769128  1
  C  C322  1  0.41420925  0.55516357  0.46479780  1
  H  H323  1  0.34095100  0.69889038  0.32259186  1
  C  C324  1  0.31660348  0.54136151  0.33482242  1
  C  C325  1  0.33163709  0.50771787  0.41784365  1
  C  C326  1  0.42848909  0.95008600  0.49296642  1
  C  C327  1  0.36317152  0.68763275  0.56482682  1
  C  C328  1  0.34170215  0.76611642  0.55881875  1
  H  H329  1  0.36815747  0.81875122  0.56552875  1
  H  H330  1  0.29722243  0.94517331  0.66339818  1
  C  C331  1  0.29414095  0.88472669  0.67748367  1
  C  C332  1  0.34561514  0.85083740  0.69807365  1
  C  C333  1  0.39283900  0.90388518  0.70808409  1
  O  O334  1  0.43990059  0.87203718  0.70940524  1
  C  C335  1  0.34042058  0.61187520  0.55286095  1
  Zn  Zn336  1  0.44514159  0.69547514  0.57646798  1
  H  H337  1  0.32470785  0.89838142  0.58206041  1
  H  H338  1  0.36304878  0.55703002  0.54294266  1
  C  C339  1  0.45510125  0.89340608  0.52030638  1
  C  C340  1  0.30741140  0.71463391  0.67174299  1
  C  C341  1  0.35407180  0.76411226  0.69540226  1
  H  H342  1  0.32059754  0.65410168  0.65677075  1
  Zn  Zn343  1  0.27645229  0.79301679  0.72613640  1
  H  H344  1  0.39556363  0.74036163  0.69342883  1
  C  C345  1  0.28664383  0.91048958  0.56596253  1
  C  C346  1  0.28159864  0.62067550  0.54508746  1
  C  C347  1  0.28507155  0.76942962  0.54529807  1
  H  H348  1  0.25840431  0.57959682  0.64494836  1
  C  C349  1  0.25750549  0.69776922  0.53754205  1
  C  C350  1  0.45887470  0.50826817  0.59119367  1
  C  C351  1  0.47941620  0.91262321  0.56429590  1
  O  O352  1  0.48542385  0.57451159  0.59145270  1
  C  C353  1  0.25105266  0.73971440  0.66280925  1
  C  C354  1  0.25272315  0.54166290  0.54267452  1
  H  H355  1  0.45472897  0.82859735  0.51124170  1
  H  H356  1  0.26965939  0.50438057  0.69673294  1
  C  C357  1  0.48438471  0.99399446  0.57841080  1
  H  H358  1  0.47491340  0.59566013  0.51463590  1
  C  C359  1  0.44200250  0.54956645  0.50849413  1
  C  C360  1  0.25971674  0.85291606  0.53951790  1
  C  C361  1  0.25940488  0.98510050  0.57777652  1
  O  O362  1  0.38543625  0.97730346  0.71229288  1
  O  O363  1  0.38648255  0.62148700  0.98154287  1
  C  C364  1  0.45689993  0.99476923  0.89829743  1
  C  C365  1  0.46343223  0.97604709  0.84631081  1
  H  H366  1  0.31772662  0.86236674  0.94985693  1
  H  H367  1  0.36796478  0.97399243  0.89276984  1
  H  H368  1  0.47853889  0.81162400  0.97909069  1
  C  C369  1  0.42012079  0.67279349  0.98176543  1
  C  C370  1  0.27482517  0.97263001  0.97638751  1
  H  H371  1  0.40956413  0.62093571  0.88979054  1
  H  H372  1  0.45176569  0.68862268  0.81764437  1
  O  O373  1  0.42253018  0.96297688  0.81998211  1
  O  O374  1  0.27450654  0.95523412  0.88946862  1
  C  C375  1  0.47410230  0.78261759  0.94466188  1
  C  C376  1  0.46225822  0.71268436  0.85516997  1
  C  C377  1  0.43538017  0.67405621  0.89334506  1
  C  C378  1  0.30027581  0.89583801  0.98118023  1
  C  C379  1  0.44869154  0.70944629  0.93695102  1
  H  H380  1  0.43667512  0.53331206  0.94041396  1
  C  C381  1  0.49875509  0.82575076  0.90628168  1
  C  C382  1  0.49260455  0.78441683  0.86284970  1
  C  C383  1  0.40423407  0.99183734  0.91639904  1
  C  C384  1  0.72009200  0.41670496  0.11902250  1
  C  C385  1  0.70549651  0.35817158  0.08738538  1
  H  H386  1  0.64436780  0.21881993  0.08208429  1
  C  C387  1  0.66486046  0.35963175  0.20812285  1
  C  C388  1  0.64387316  0.43573108  0.21928593  1
  C  C389  1  0.65984892  0.36732673  0.05539209  1
  C  C390  1  0.60503328  0.06902074  0.04254945  1
  H  H391  1  0.53609057  0.42766717  0.18210274  1
  H  H392  1  0.66008693  0.32839643  0.17270063  1
  H  H393  1  0.61451342  0.11395066  0.17611153  1
  C  C394  1  0.57356161  0.07779616  0.08310690  1
  C  C395  1  0.63681743  0.21867240  0.04456974  1
  C  C396  1  0.60640735  0.05463850  0.19303209  1
  C  C397  1  0.63765535  0.44526542  0.05340767  1
  H  H398  1  0.67139348  0.08764296  0.11222337  1
  C  C399  1  0.71426668  0.07324088  0.10167935  1
  H  H400  1  0.72259864  0.24129309  0.16350879  1
  C  C401  1  0.63474084  0.29911771  0.02674555  1
  H  H402  1  0.72537455  0.29971585  0.08669868  1
  C  C403  1  0.72065129  0.19225290  0.19043550  1
  C  C404  1  0.61968466  0.14944823  0.01861689  1
  H  H405  1  0.60479736  0.46318882  0.02672145  1
  H  H406  1  0.56906167  0.13646999  0.09947885  1
  C  C407  1  0.73079096  0.05512560  0.22411274  1
  H  H408  1  0.69358232  0.03653776  0.03015878  1
  C  C409  1  0.57599509  0.05000492  0.23676787  1
  C  C410  1  0.72733505  0.04210089  0.05640847  1
  C  C411  1  0.70163943  0.21880171  0.23674353  1
  C  C412  1  0.73698917  0.11156275  0.18427057  1
  H  H413  1  0.60917178  0.22530456  0.23694333  1
  C  C414  1  0.56623179  0.20887564  0.24780545  1
  C  C415  1  0.54441155  0.12580965  0.24855102  1
  C  C416  1  0.51833698  0.39659182  0.15086947  1
  C  C417  1  0.51814104  0.45189888  0.11120718  1
  H  H418  1  0.51896322  0.00821130  0.13242367  1
  C  C419  1  0.68583642  0.30834593  0.24467720  1
  H  H420  1  0.50201098  0.27970159  0.17799718  1
  C  C421  1  0.50046405  0.31722978  0.14744836  1
  C  C422  1  0.69450154  0.49149166  0.11768915  1
  H  H423  1  0.62729272  0.47595702  0.19198053  1
  H  H424  1  0.50299497  0.45972756  0.03537973  1
  C  C425  1  0.54614508  0.00899656  0.10035313  1
  C  C426  1  0.50336374  0.41990820  0.06668563  1
  H  H427  1  0.70210117  0.08929766  0.43959350  1
  C  C428  1  0.52625784  0.26552463  0.26016340  1
  H  H429  1  0.69045923  0.44935395  0.33531020  1
  C  C430  1  0.70045992  0.33141170  0.41597654  1
  Zn  Zn431  1  0.51734436  0.38765892  0.26587194  1
  O  O432  1  0.59244716  0.36586927  0.45373206  1
  C  C433  1  0.71148454  0.47792832  0.40846418  1
  H  H434  1  0.67524251  0.18519517  0.31093808  1
  H  H435  1  0.67446495  0.28221178  0.42756223  1
  C  C436  1  0.70741451  0.08363807  0.26497266  1
  C  C437  1  0.62202361  0.41938818  0.44122731  1
  C  C438  1  0.67957217  0.40896580  0.41981362  1
  C  C439  1  0.69112155  0.16567270  0.27539428  1
  C  C440  1  0.69789450  0.34372095  0.29047664  1
  H  H441  1  0.50522017  0.43792394  0.43944251  1
  H  H442  1  0.72078033  0.30047072  0.31349241  1
  C  C443  1  0.65435273  0.46484239  0.26504368  1
  C  C444  1  0.68251375  0.42248742  0.30097418  1
  O  O445  1  0.60411138  0.49234263  0.44269489  1
  C  C446  1  0.74440075  0.08654229  0.42703413  1
  C  C447  1  0.74893034  0.31884683  0.39398763  1
  C  C448  1  0.62881971  0.12059950  0.65667048  1
  C  C449  1  0.59878991  0.16027406  0.62098075  1
  C  C450  1  0.62552070  0.19658361  0.58305368  1
  C  C451  1  0.68256261  0.20495204  0.59276720  1
  C  C452  1  0.68635875  0.12526280  0.66420807  1
  C  C453  1  0.71405511  0.17294791  0.63118836  1
  H  H454  1  0.55214489  0.16225293  0.62131439  1
  C  C455  1  0.59872861  0.06325162  0.68761610  1
  H  H456  1  0.60208004  0.21867764  0.55208147  1
  H  H457  1  0.71059458  0.09778422  0.69470930  1
  O  O458  1  0.54954636  0.04710559  0.67826121  1
  O  O459  1  0.62125993  0.03305902  0.72406487  1
  C  C460  1  0.72300814  0.23703824  0.55515007  1
  C  C461  1  0.73811945  0.17881252  0.52094758  1
  H  H462  1  0.74253381  0.35845556  0.58913972  1
  H  H463  1  0.72138634  0.11917495  0.52262418  1
  H  H464  1  0.50563739  0.00839538  0.61047793  1
  C  C465  1  0.50518197  0.28351565  0.91902480  1
  C  C466  1  0.61126724  0.31191987  0.98102530  1
  C  C467  1  0.62247458  0.43628880  0.87100950  1
  C  C468  1  0.73756446  0.14634922  0.81719114  1
  C  C469  1  0.59719997  0.16020764  0.97212157  1
  C  C470  1  0.53064064  0.49355061  0.87706953  1
  O  O471  1  0.73383227  0.12251567  0.77653672  1
  C  C472  1  0.50324296  0.02038948  0.92530180  1
  C  C473  1  0.70981583  0.22321796  0.83349554  1
  H  H474  1  0.60541153  0.37184709  0.96641819  1
  C  C475  1  0.66983539  0.25609150  0.80284924  1
  H  H476  1  0.61121727  0.18394820  0.86089558  1
  C  C477  1  0.56507517  0.42475145  0.87263501  1
  C  C478  1  0.65423731  0.35785320  0.86299835  1
  H  H479  1  0.65988372  0.22000515  0.76987777  1
  C  C480  1  0.64174222  0.32444684  0.81725893  1
  C  C481  1  0.52895531  0.18367971  0.83456949  1
  C  C482  1  0.56949529  0.20652322  0.86823807  1
  C  C483  1  0.55734555  0.24576095  0.91351044  1
  C  C484  1  0.59532343  0.24289798  0.95606726  1
  H  H485  1  0.53806604  0.14702342  0.80172368  1
  C  C486  1  0.71625427  0.24817450  0.88126914  1
  H  H487  1  0.61123312  0.35146882  0.79302090  1
  H  H488  1  0.69125380  0.34432857  0.93360469  1
  H  H489  1  0.58050899  0.10964320  0.95150880  1
  H  H490  1  0.55044899  0.36340636  0.86241453  1
  C  C491  1  0.68775859  0.31846659  0.89581640  1
  H  H492  1  0.74755305  0.21769255  0.90219123  1
  H  H493  1  0.54420817  0.02561275  0.90946100  1
  H  H494  1  0.53366430  0.05466909  0.99694675  1
  Zn  Zn495  1  0.60994051  0.66635937  0.18296471  1
  O  O496  1  0.68533972  0.62269473  0.14902454  1
  C  C497  1  0.71109887  0.55859873  0.14901453  1
  O  O498  1  0.68389896  0.84691766  0.15091287  1
  C  C499  1  0.65393616  0.84149586  0.18834351  1
  C  C500  1  0.62716747  0.91617213  0.20755925  1
  O  O501  1  0.64849163  0.77559450  0.21029863  1
  C  C502  1  0.55238089  0.93721875  0.07642122  1
  O  O503  1  0.55457664  0.55933373  0.15617094  1
  C  C504  1  0.58361130  0.92967509  0.03357426  1
  H  H505  1  0.63630463  0.56934281  0.08276660  1
  O  O506  1  0.52999440  0.58720546  0.08267488  1
  C  C507  1  0.53551636  0.53753625  0.11699188  1
  H  H508  1  0.58829938  0.86814759  0.01708006  1
  O  O509  1  0.53164730  0.79841975  0.08311793  1
  O  O510  1  0.53765945  0.71962202  0.20239263  1
  C  C511  1  0.52436567  0.86609516  0.09921511  1
  H  H512  1  0.52533937  0.66549144  0.20905067  1
  O  O513  1  0.61183921  0.59349700  0.24870716  1
  C  C514  1  0.63243433  0.98533833  0.17808204  1
  O  O515  1  0.74649799  0.54636894  0.17930730  1
  C  C516  1  0.61338242  0.99475681  0.01676220  1
  H  H517  1  0.65721718  0.98547656  0.14540883  1
  O  O518  1  0.50138087  0.88099499  0.13922391  1
  C  C519  1  0.65474933  0.50825918  0.08429313  1
  C  C520  1  0.60344917  0.91427093  0.25401176  1
  C  C521  1  0.57204314  0.97898410  0.26592096  1
  O  O522  1  0.50902033  0.54561244  0.36989608  1
  H  H523  1  0.60681272  0.85922471  0.27634239  1
  C  C524  1  0.60759428  0.77089567  0.37650584  1
  C  C525  1  0.74582332  0.66332651  0.45202004  1
  H  H526  1  0.54876941  0.98186541  0.29916708  1
  C  C527  1  0.59305510  0.74102176  0.32951104  1
  O  O528  1  0.63873292  0.56888494  0.32122696  1
  C  C529  1  0.63434829  0.54803694  0.27764215  1
  H  H530  1  0.72552979  0.98969951  0.37802157  1
  C  C531  1  0.51333320  0.82559105  0.32482115  1
  H  H532  1  0.61279416  0.71948053  0.47291175  1
  C  C533  1  0.74387943  0.66647986  0.40051199  1
  H  H534  1  0.61991706  0.69471766  0.31637993  1
  C  C535  1  0.69916006  0.70132129  0.37527521  1
  C  C536  1  0.64979846  0.70868225  0.45203426  1
  C  C537  1  0.54552631  0.76356279  0.30513556  1
  C  C538  1  0.52709959  0.85591834  0.37005907  1
  H  H539  1  0.72727431  0.62115094  0.30718461  1
  Zn  Zn540  1  0.59055705  0.54975539  0.38115194  1
  H  H541  1  0.69877061  0.54258738  0.41582544  1
  C  C542  1  0.69662184  0.68067217  0.47620508  1
  H  H543  1  0.58189736  0.85631235  0.42972718  1
  H  H544  1  0.70656666  0.71584380  0.33502997  1
  C  C545  1  0.57473295  0.83335323  0.39472477  1
  C  C546  1  0.65411748  0.72678777  0.40332941  1
  H  H547  1  0.53348987  0.73514448  0.26966284  1
  Zn  Zn548  1  0.73063937  0.96665004  0.27580947  1
  C  C549  1  0.68868127  0.62522181  0.56452833  1
  C  C550  1  0.69035944  0.64416784  0.61392514  1
  C  C551  1  0.70602254  0.78681608  0.59574447  1
  C  C552  1  0.69684864  0.72329188  0.62706371  1
  C  C553  1  0.68668839  0.75181320  0.68073003  1
  O  O554  1  0.69710344  0.82453576  0.69031227  1
  O  O555  1  0.67092180  0.70753065  0.71032015  1
  O  O556  1  0.53705420  0.87343379  0.62877080  1
  Zn  Zn557  1  0.51700528  0.92823815  0.69689944  1
  H  H558  1  0.68649702  0.59263143  0.63896939  1
  H  H559  1  0.68481444  0.56179825  0.55422100  1
  C  C560  1  0.70520511  0.76790406  0.54760204  1
  Zn  Zn561  1  0.63679457  0.90252529  0.72692974  1
  H  H562  1  0.70847046  0.85038073  0.60302498  1
  C  C563  1  0.50857797  0.85025552  0.59322616  1
  C  C564  1  0.69641976  0.68768734  0.53076287  1
  O  O565  1  0.56175069  0.86307029  0.74392455  1
  O  O566  1  0.50921345  0.77721130  0.58360610  1
  H  H567  1  0.70556808  0.81377875  0.51840720  1
  O  O568  1  0.68678861  0.96263441  0.85979440  1
  H  H569  1  0.63594041  0.99283231  0.98212822  1
  C  C570  1  0.68180724  0.90786584  0.82918846  1
  H  H571  1  0.63827494  0.85736203  0.91523182  1
  C  C572  1  0.55337977  0.56892590  0.88192452  1
  C  C573  1  0.64735129  0.51426237  0.86984383  1
  H  H574  1  0.52668035  0.61967659  0.88674871  1
  C  C575  1  0.62520548  0.73075443  0.90054248  1
  O  O576  1  0.51097266  0.97385449  0.82861639  1
  H  H577  1  0.65362727  0.63810279  0.79209281  1
  C  C578  1  0.66363490  0.76662979  0.80593289  1
  C  C579  1  0.66364084  0.82486525  0.84216405  1
  H  H580  1  0.69231610  0.52279838  0.86425991  1
  Zn  Zn581  1  0.53110596  0.84430364  0.81031631  1
  C  C582  1  0.62676812  0.67022264  0.86453687  1
  C  C583  1  0.61074816  0.57949780  0.87336725  1
  C  C584  1  0.64642474  0.68949071  0.81772772  1
  O  O585  1  0.69515391  0.92014831  0.78629436  1
  H  H586  1  0.68080237  0.77946886  0.76977460  1
  H  H587  1  0.60865240  0.71908441  0.93724997  1
  H  H588  1  0.51872128  0.88803493  0.90719793  1
  C  C589  1  0.64440297  0.80743242  0.88869305  1
  C  C590  1  0.87027079  0.35683950  0.16123112  1
  C  C591  1  0.90570799  0.29007277  0.15476112  1
  C  C592  1  0.95423664  0.31226493  0.13140520  1
  C  C593  1  0.97362340  0.38943343  0.12002229  1
  C  C594  1  0.81109192  0.05757399  0.12550303  1
  C  C595  1  0.93805036  0.45699982  0.12732279  1
  C  C596  1  0.89015438  0.43481511  0.14915277  1
  H  H597  1  0.89645603  0.22570470  0.16504691  1
  H  H598  1  0.84050381  0.04954746  0.15501277  1
  H  H599  1  0.83124094  0.34787314  0.18305759  1
  C  C600  1  0.78103697  0.02659630  0.04410339  1
  C  C601  1  0.82269613  0.03073361  0.07928280  1
  H  H602  1  0.75515820  0.40446517  0.14237438  1
  C  C603  1  0.98908162  0.23655675  0.11918995  1
  C  C604  1  0.75698394  0.08732617  0.13543898  1
  H  H605  1  0.86591096  0.01527358  0.07072475  1
  H  H606  1  0.96183269  0.39772887  0.22131297  1
  O  O607  1  0.97214128  0.16545941  0.12518469  1
  H  H608  1  0.99555661  0.22146300  0.49564783  1
  C  C609  1  0.92520697  0.15218938  0.31731873  1
  C  C610  1  0.87392773  0.44460362  0.37046188  1
  H  H611  1  0.83532021  0.25015258  0.35909695  1
  C  C612  1  0.76091605  0.46538073  0.38605091  1
  C  C613  1  0.78662416  0.14053921  0.44301522  1
  C  C614  1  0.81985144  0.46039192  0.48093549  1
  C  C615  1  0.95658672  0.02742538  0.49037888  1
  C  C616  1  0.79582009  0.27997930  0.48184095  1
  H  H617  1  0.87333188  0.17087754  0.43531254  1
  C  C618  1  0.85300993  0.06585028  0.39315594  1
  C  C619  1  0.93030614  0.43421007  0.37577679  1
  H  H620  1  0.81984135  0.30210270  0.45166569  1
  C  C621  1  0.81100405  0.01256591  0.37996311  1
  C  C622  1  0.78127593  0.38512735  0.38014276  1
  C  C623  1  0.95184974  0.21442663  0.34365663  1
  H  H624  1  0.88090014  0.15581090  0.31192385  1
  C  C625  1  0.95273724  0.08201795  0.30476980  1
  C  C626  1  0.84044104  0.37495264  0.36803459  1
  H  H627  1  0.89332424  0.05297744  0.37783472  1
  C  C628  1  0.97483077  0.10457608  0.47410202  1
  C  C629  1  0.86545804  0.29758280  0.36188894  1
  C  C630  1  0.75872441  0.02768349  0.39418751  1
  C  C631  1  0.84118067  0.12739533  0.42591332  1
  C  C632  1  0.77391080  0.20193342  0.48120170  1
  C  C633  1  0.92351724  0.28875449  0.36020981  1
  H  H634  1  0.76472566  0.25632559  0.39382118  1
  H  H635  1  0.81396581  0.43267711  0.44640636  1
  H  H636  1  0.93522577  0.03244577  0.28238184  1
  C  C637  1  0.95547870  0.35807787  0.36843711  1
  H  H638  1  0.97619409  0.11565951  0.43434455  1
  C  C639  1  0.82405068  0.06848963  0.58506027  1
  C  C640  1  0.82536910  0.06656982  0.63577163  1
  C  C641  1  0.85400167  0.20569213  0.57781829  1
  C  C642  1  0.84477808  0.13677977  0.65688182  1
  C  C643  1  0.85297273  0.20749556  0.62862847  1
  C  C644  1  0.85775619  0.28827378  0.65618073  1
  C  C645  1  0.81174400  0.33338056  0.67125851  1
  H  H646  1  0.84717087  0.14853097  0.69657184  1
  H  H647  1  0.94686473  0.26716515  0.66132459  1
  C  C648  1  0.91245609  0.30502948  0.67130788  1
  C  C649  1  0.82291562  0.39805837  0.70369816  1
  C  C650  1  0.83686976  0.13296318  0.55593374  1
  H  H651  1  0.86508552  0.25909523  0.55669378  1
  H  H652  1  0.77046366  0.31512609  0.65896192  1
  C  C653  1  0.91723503  0.36710162  0.70624133  1
  C  C654  1  0.87345239  0.41466547  0.72410884  1
  C  C655  1  0.97550706  0.14883758  0.55556228  1
  H  H656  1  0.81429378  0.42006591  0.60145417  1
  H  H657  1  0.83658490  0.12671872  0.51626312  1
  H  H658  1  0.96884886  0.32440269  0.54213376  1
  C  C659  1  0.78274516  0.46132879  0.72349747  1
  C  C660  1  0.80901470  0.42041489  0.52488289  1
  H  H661  1  0.75808271  0.18038431  0.63221488  1
  C  C662  1  0.81469436  0.45837163  0.56934457  1
  C  C663  1  0.78505980  0.33424244  0.52134708  1
  C  C664  1  0.97077652  0.38754715  0.73193954  1
  H  H665  1  0.92353628  0.45267996  0.56322882  1
  H  H666  1  0.95542002  0.05892401  0.61215635  1
  C  C667  1  0.96033472  0.07106954  0.57329624  1
  C  C668  1  0.99109890  0.30178446  0.57487480  1
  C  C669  1  0.99431448  0.21865145  0.58594979  1
  C  C670  1  0.96166674  0.48616633  0.56861614  1
  C  C671  1  0.98402090  0.16234669  0.50665656  1
  C  C672  1  0.99765518  0.46409016  0.72548572  1
  C  C673  1  0.95245498  0.01077055  0.53958394  1
  C  C674  1  0.75027533  0.31531498  0.55949540  1
  C  C675  1  0.93506047  0.06096581  0.74786222  1
  H  H676  1  0.81291778  0.01592268  0.65865600  1
  O  O677  1  0.75187830  0.00972959  0.96311087  1
  H  H678  1  0.88037108  0.46168323  0.75044873  1
  C  C679  1  0.98461098  0.23471400  0.88531769  1
  O  O680  1  0.98126152  0.02097975  0.87886696  1
  C  C681  1  0.83487362  0.03623959  0.75214720  1
  H  H682  1  0.94904565  0.10526073  0.82146176  1
  C  C683  1  0.99988194  0.00491307  0.95887787  1
  H  H684  1  0.95892966  0.28720260  0.78265679  1
  H  H685  1  0.81109769  0.23531582  0.76267531  1
  H  H686  1  0.96881785  0.09986427  0.76096954  1
  C  C687  1  0.98816508  0.33718310  0.77041754  1
  C  C688  1  0.84683654  0.22890877  0.78550958  1
  H  H689  1  0.94334529  0.30031058  0.94281847  1
  C  C690  1  0.93528091  0.22830885  0.85499565  1
  O  O691  1  0.77153239  0.11766748  0.84755976  1
  C  C692  1  0.78982821  0.00632924  0.99255254  1
  C  C693  1  0.90341732  0.30166192  0.85075575  1
  H  H694  1  0.77211847  0.39444821  0.79370290  1
  H  H695  1  0.79201568  0.05501589  0.76210240  1
  H  H696  1  0.91429369  0.35974269  0.86865570  1
  C  C697  1  0.77093006  0.45339204  0.77475119  1
  C  C698  1  0.86366126  0.28619638  0.81692757  1
  C  C699  1  0.88377608  0.15678127  0.79212082  1
  C  C700  1  0.92396037  0.15834928  0.82566136  1
  C  C701  1  0.88161931  0.08452709  0.75913217  1
  C  C702  1  0.98254182  0.27806809  0.93048015  1
  Zn  Zn703  1  0.76907470  0.00301702  0.88209996  1
  C  C704  1  0.93786913  0.84193619  0.18447168  1
  C  C705  1  0.90357753  0.84669704  0.14389041  1
  C  C706  1  0.84882570  0.84700990  0.15458467  1
  C  C707  1  0.86407523  0.66643039  0.10412331  1
  H  H708  1  0.89506168  0.67164583  0.13323907  1
  C  C709  1  0.82902862  0.84468868  0.20120311  1
  C  C710  1  0.82505918  0.60571340  0.10288649  1
  H  H711  1  0.91967665  0.85041644  0.10764902  1
  C  C712  1  0.91923973  0.83615923  0.23164208  1
  C  C713  1  0.78543041  0.58822261  0.06739184  1
  C  C714  1  0.86475843  0.71373038  0.06158570  1
  O  O715  1  0.90004663  0.58435375  0.21749687  1
  C  C716  1  0.86326421  0.83780967  0.24295245  1
  H  H717  1  0.89450865  0.75923794  0.05673420  1
  C  C718  1  0.78564397  0.64246111  0.02898713  1
  C  C719  1  0.82659919  0.70182329  0.02562502  1
  Zn  Zn720  1  0.83214399  0.52450967  0.16062135  1
  H  H721  1  0.80191042  0.61049558  0.24157517  1
  H  H722  1  0.75888063  0.53467665  0.06804946  1
  Zn  Zn723  1  0.76536247  0.84494077  0.15825914  1
  H  H724  1  0.94633189  0.52195752  0.11426633  1
  C  C725  1  0.99959423  0.85305462  0.17497565  1
  H  H726  1  0.75423018  0.63493179  0.00154328  1
  H  H727  1  0.94824466  0.83483386  0.25964500  1
  H  H728  1  0.85818141  0.50503586  0.37418047  1
  H  H729  1  0.84797827  0.82816902  0.28057602  1
  C  C730  1  0.91047619  0.62391212  0.25427632  1
  C  C731  1  0.82269814  0.93952202  0.34761306  1
  C  C732  1  0.97955191  0.64723824  0.40934935  1
  C  C733  1  0.83641541  0.54111290  0.48165794  1
  O  O734  1  0.96640773  0.98710646  0.40485209  1
  H  H735  1  0.84887806  0.69695851  0.40956255  1
  O  O736  1  0.95939293  0.64574779  0.26342862  1
  H  H737  1  0.92220203  0.67507078  0.34897268  1
  H  H738  1  0.97052315  0.70027360  0.43454915  1
  C  C739  1  0.88061327  0.66714466  0.33786651  1
  H  H740  1  0.78858696  0.51418774  0.38065551  1
  C  C741  1  0.86538759  0.64201885  0.29093071  1
  O  O742  1  0.78735398  0.89764320  0.33103520  1
  C  C743  1  0.96851514  0.50677855  0.38319734  1
  H  H744  1  0.78230469  0.65377707  0.47257596  1
  Zn  Zn745  1  0.94761505  0.88651549  0.35939676  1
  C  C746  1  0.94651474  0.97587398  0.44519307  1
  C  C747  1  0.78583343  0.65293336  0.36072972  1
  C  C748  1  0.77109150  0.63296646  0.31322261  1
  H  H749  1  0.84863205  0.57269332  0.44745298  1
  O  O750  1  0.92213461  0.91088000  0.45310624  1
  C  C751  1  0.95571409  0.56968557  0.41651331  1
  C  C752  1  0.81279441  0.62349405  0.27907800  1
  O  O753  1  0.87160767  0.93609184  0.33326657  1
  C  C754  1  0.84147401  0.67232327  0.37396763  1
  H  H755  1  0.92492459  0.56394971  0.44298441  1
  O  O756  1  0.86509824  0.70882287  0.49426263  1
  O  O757  1  0.84618237  0.70201382  0.57065415  1
  Zn  Zn758  1  0.85131177  0.82193221  0.59229021  1
  C  C759  1  0.83927314  0.57990749  0.52735360  1
  O  O760  1  0.86156072  0.82185335  0.67521698  1
  C  C761  1  0.90280107  0.86721368  0.68219869  1
  O  O762  1  0.94982958  0.84961928  0.66986326  1
  O  O763  1  0.80112799  0.92406727  0.58865899  1
  C  C764  1  0.85062046  0.67017450  0.53002948  1
  C  C765  1  0.89370886  0.94044457  0.71430554  1
  H  H766  1  0.91907864  0.69645925  0.68732651  1
  C  C767  1  0.96205924  0.69025574  0.70467364  1
  C  C768  1  0.81067069  0.98506487  0.56231151  1
  O  O769  1  0.92959199  0.84788184  0.56967720  1
  H  H770  1  0.83597227  0.56778915  0.60540700  1
  O  O771  1  0.80550631  0.98180022  0.51981985  1
  H  H772  1  0.94179531  0.94716248  0.55227621  1
  Zn  Zn773  1  0.92704495  0.80635483  0.50644740  1
  H  H774  1  0.78257702  0.54089376  0.66144965  1
  C  C775  1  0.82815567  0.53996075  0.57016735  1
  H  H776  1  0.98239725  0.97700120  0.71075192  1
  C  C777  1  0.77494543  0.53773181  0.69990457  1
  C  C778  1  0.96358103  0.56469654  0.54949306  1
  H  H779  1  0.93158957  0.59152938  0.52584739  1
  O  O780  1  0.98869391  0.72102280  0.50465653  1
  H  H781  1  0.80870566  0.91377582  0.72430577  1
  C  C782  1  0.84113828  0.96085368  0.73015010  1
  C  C783  1  0.94030799  0.98813902  0.72310197  1
  H  H784  1  0.97899299  0.50852762  0.70322085  1
  C  C785  1  0.76761563  0.60675202  0.72833749  1
  H  H786  1  0.77011441  0.66660642  0.71007208  1
  O  O787  1  0.83782584  0.99207930  0.98039486  1
  H  H788  1  0.98524782  0.89006607  0.99374396  1
  Zn  Zn789  1  0.86970767  0.73576747  0.75248290  1
  C  C790  1  0.97785217  0.97315172  0.91075193  1
  O  O791  1  0.92844808  0.72052453  0.83939677  1
  O  O792  1  0.80501819  0.90221412  0.88452557  1
  Zn  Zn793  1  0.86966146  0.90885361  0.92774233  1
  O  O794  1  0.78620730  0.73878963  0.79173256  1
  O  O795  1  0.76241688  0.66802187  0.85344087  1
  O  O796  1  0.78356947  0.75500318  0.95553633  1
  C  C797  1  0.76722610  0.59873658  0.77748727  1
  O  O798  1  0.95139915  0.90638091  0.90971963  1
  Zn  Zn799  1  0.78676949  0.78636124  0.88194067  1
  C  C800  1  0.93114046  0.71737702  0.79747853  1
  C  C801  1  0.82615164  0.75409841  0.98214828  1
  O  O802  1  0.86354200  0.80477537  0.97681473  1
  C  C803  1  0.97198485  0.70237237  0.75811261  1
  C  C804  1  0.76935671  0.67316076  0.80865552  1
  H  H805  1  0.76556851  0.52029309  0.84028689  1
  C  C806  1  0.76332443  0.52399128  0.80200800  1
  C  C807  1  0.99842562  0.95241566  0.99781749  1
