# generated using pymatgen
data_ZnH10(C2N)4
_symmetry_space_group_name_H-M   'P 1'
_cell_length_a   32.37500815
_cell_length_b   17.92177984
_cell_length_c   19.46657942
_cell_angle_alpha   90.00000000
_cell_angle_beta   90.00000000
_cell_angle_gamma   90.00000000
_symmetry_Int_Tables_number   1
_chemical_formula_structural   ZnH10(C2N)4
_chemical_formula_sum   'Zn48 H480 C384 N192'
_cell_volume   11294.85526813
_cell_formula_units_Z   48
loop_
 _symmetry_equiv_pos_site_id
 _symmetry_equiv_pos_as_xyz
  1  'x, y, z'
loop_
 _atom_site_type_symbol
 _atom_site_label
 _atom_site_symmetry_multiplicity
 _atom_site_fract_x
 _atom_site_fract_y
 _atom_site_fract_z
 _atom_site_occupancy
  N  N0  1  0.06011788  0.34660378  0.34989753  1
  C  C1  1  0.16751928  0.03464790  0.42342046  1
  N  N2  1  0.06829157  0.02855642  0.01081078  1
  N  N3  1  0.12512888  0.18498229  0.19596873  1
  N  N4  1  0.14360894  0.02104994  0.19190320  1
  N  N5  1  0.07728524  0.15324482  0.00394590  1
  H  H6  1  0.24990369  0.10114600  0.29115085  1
  C  C7  1  0.02350414  0.32169425  0.05247760  1
  N  N8  1  0.07542438  0.05433421  0.32189068  1
  N  N9  1  0.21212944  0.14887610  0.41847395  1
  H  H10  1  0.10981138  0.16642831  0.39825022  1
  H  H11  1  0.01051060  0.02385592  0.06504029  1
  H  H12  1  0.22031169  0.15830220  0.13496265  1
  H  H13  1  0.23985642  0.27506971  0.15261975  1
  H  H14  1  0.05659826  0.19190757  0.41029686  1
  N  N15  1  0.16111353  0.14886507  0.33855679  1
  N  N16  1  0.13691479  0.44682256  0.02300848  1
  H  H17  1  0.03998796  0.30804768  0.10212082  1
  C  C18  1  0.07941636  0.14577704  0.41813796  1
  C  C19  1  0.08719929  0.29066778  0.34925903  1
  C  C20  1  0.07692661  0.45409386  0.19717463  1
  C  C21  1  0.18345132  0.20869344  0.32508192  1
  C  C22  1  0.23583842  0.04714515  0.28071523  1
  C  C23  1  0.12021387  0.28857263  0.12952438  1
  H  H24  1  0.10966401  0.33963697  0.10310831  1
  H  H25  1  0.18427636  0.24291967  0.28195515  1
  C  C26  1  0.17863742  0.11101126  0.39469226  1
  C  C27  1  0.16360590  0.20940623  0.17329444  1
  H  H28  1  0.06482120  0.23142195  0.17909870  1
  N  N29  1  0.00362178  0.25933771  0.26252305  1
  H  H30  1  0.20524449  0.17274184  0.03334500  1
  C  C31  1  0.20394579  0.16656880  0.18320213  1
  Zn  Zn32  1  0.15524834  0.45265445  0.46317165  1
  H  H33  1  0.19332965  0.39112569  0.31839146  1
  H  H34  1  0.14978252  0.08846433  0.09821240  1
  H  H35  1  0.19968673  0.11155469  0.20504007  1
  H  H36  1  0.01063062  0.08890058  0.30935603  1
  H  H37  1  0.15138725  0.28962163  0.40141544  1
  N  N38  1  0.15985250  0.27336626  0.13443299  1
  C  C39  1  0.11343414  0.43155434  0.24354008  1
  H  H40  1  0.22512061  0.19329691  0.22020058  1
  C  C41  1  0.01255007  0.45671301  0.15858351  1
  H  H42  1  0.19047521  0.41766946  0.07330335  1
  C  C43  1  0.09855636  0.23532064  0.16996578  1
  N  N44  1  0.21293340  0.43370226  0.41510244  1
  C  C45  1  0.12005682  0.31681301  0.39186871  1
  C  C46  1  0.07556391  0.40605148  0.38663707  1
  N  N47  1  0.03641946  0.43132945  0.20856595  1
  C  C48  1  0.22053327  0.40156980  0.35247077  1
  C  C49  1  0.16916557  0.40238055  0.03320000  1
  Zn  Zn50  1  0.11597874  0.10619932  0.26191502  1
  Zn  Zn51  1  0.01676422  0.36505977  0.27805417  1
  H  H52  1  0.08665673  0.23914139  0.31571617  1
  H  H53  1  0.10351567  0.38590997  0.27804023  1
  H  H54  1  0.14127446  0.41290998  0.21180406  1
  C  C55  1  0.03487268  0.05850331  0.03770909  1
  N  N56  1  0.11311924  0.38778108  0.41093197  1
  H  H57  1  0.01981256  0.18399409  0.04462875  1
  C  C58  1  0.21333316  0.21153626  0.37922845  1
  C  C59  1  0.16117994  0.03975371  0.13004965  1
  C  C60  1  0.24757074  0.31806679  0.11469752  1
  H  H61  1  0.20159973  0.05874576  0.28297764  1
  H  H62  1  0.08596277  0.14235733  0.47372450  1
  C  C63  1  0.05294883  0.48399812  0.39544901  1
  C  C64  1  0.04142223  0.13779930  0.03591076  1
  C  C65  1  0.06371853  0.07144034  0.38727775  1
  H  H66  1  0.12515334  0.48064279  0.27719597  1
  C  C67  1  0.24919856  0.43671113  0.44778285  1
  H  H68  1  0.16072827  0.03567394  0.48053298  1
  H  H69  1  0.24168374  0.24553248  0.38040779  1
  H  H70  1  0.01793694  0.47628570  0.39345459  1
  H  H71  1  0.24048318  0.42819028  0.16773996  1
  H  H72  1  0.17499664  0.28051144  0.00204309  1
  C  C73  1  0.24920288  0.39471661  0.12566772  1
  H  H74  1  0.24653972  0.02983579  0.22935465  1
  H  H75  1  0.13937282  0.01160747  0.39923156  1
  N  N76  1  0.04689335  0.00918671  0.41855583  1
  H  H77  1  0.22155367  0.01228286  0.07592386  1
  C  C78  1  0.04012595  0.49654405  0.11358228  1
  N  N79  1  0.07867804  0.49376456  0.13815486  1
  C  C80  1  0.19945089  0.00510850  0.11905015  1
  H  H81  1  0.18988948  0.29090056  0.49474115  1
  C  C82  1  0.03881911  0.30165710  0.55387641  1
  C  C83  1  0.09723159  0.14226997  0.75811807  1
  Zn  Zn84  1  0.16161348  0.36134052  0.61479387  1
  N  N85  1  0.09470983  0.21797468  0.85213937  1
  H  H86  1  0.11031944  0.39200856  0.72920157  1
  N  N87  1  0.12328215  0.20053585  0.75014635  1
  Zn  Zn88  1  0.08618959  0.24984644  0.94993913  1
  H  H89  1  0.00696355  0.36691128  0.83363933  1
  N  N90  1  0.17832850  0.25659846  0.58876025  1
  H  H91  1  0.11894787  0.48465994  0.81091295  1
  C  C92  1  0.01861563  0.31847302  0.86532327  1
  C  C93  1  0.22497992  0.41157053  0.79651694  1
  C  C94  1  0.07713544  0.38075725  0.71806354  1
  H  H95  1  0.16722707  0.33778025  0.78055092  1
  H  H96  1  0.01380172  0.28273116  0.51616757  1
  C  C97  1  0.06845787  0.34967072  0.64368870  1
  C  C98  1  0.24740897  0.10928669  0.97051581  1
  C  C99  1  0.20850192  0.43788311  0.73855412  1
  H  H100  1  0.13437121  0.35330023  0.85643218  1
  N  N101  1  0.19089729  0.44091011  0.67984425  1
  Zn  Zn102  1  0.16660503  0.19617872  0.67360587  1
  H  H103  1  0.05135860  0.12457823  0.84935177  1
  H  H104  1  0.02767493  0.11704720  0.54158760  1
  H  H105  1  0.24008300  0.44976625  0.83128790  1
  H  H106  1  0.24305302  0.35415967  0.65698222  1
  H  H107  1  0.19487122  0.17998843  0.52322651  1
  N  N108  1  0.03645587  0.30317220  0.99019187  1
  C  C109  1  0.11005519  0.41461336  0.97765202  1
  C  C110  1  0.21723174  0.17595439  0.97972752  1
  H  H111  1  0.10107338  0.27399272  0.50350645  1
  C  C112  1  0.12343049  0.24432074  0.80854943  1
  H  H113  1  0.05275529  0.30845392  0.85465429  1
  H  H114  1  0.17731600  0.29550675  0.86153005  1
  C  C115  1  0.08213642  0.29610358  0.54601403  1
  C  C116  1  0.07185579  0.44847464  0.94330606  1
  N  N117  1  0.21603693  0.21432728  0.73691079  1
  C  C118  1  0.13581120  0.06994690  0.95265945  1
  N  N119  1  0.09951820  0.33011714  0.60172519  1
  H  H120  1  0.09557081  0.09007281  0.72917852  1
  H  H121  1  0.23274584  0.23214202  0.98239893  1
  C  C122  1  0.15164246  0.31151004  0.82688367  1
  H  H123  1  0.13958686  0.01099261  0.93903635  1
  N  N124  1  0.03080189  0.33344334  0.61363748  1
  C  C125  1  0.09491990  0.08387331  0.99134648  1
  C  C126  1  0.18927479  0.24153701  0.53175812  1
  C  C127  1  0.08876397  0.11876655  0.58315876  1
  H  H128  1  0.19579012  0.15202467  0.82324278  1
  C  C129  1  0.12161678  0.06528117  0.59629477  1
  N  N130  1  0.15389725  0.09293998  0.63117510  1
  C  C131  1  0.07624844  0.15815359  0.82141712  1
  H  H132  1  0.22802241  0.35114796  0.80710280  1
  H  H133  1  0.07135361  0.43622146  0.55728118  1
  N  N134  1  0.05643136  0.09242942  0.55312027  1
  H  H135  1  0.09034685  0.17935450  0.60271413  1
  H  H136  1  0.04252431  0.44286500  0.97512148  1
  H  H137  1  0.12064933  0.00385803  0.58313966  1
  H  H138  1  0.06504604  0.42487712  0.89467808  1
  H  H139  1  0.00524936  0.26567347  0.84235504  1
  N  N140  1  0.12192021  0.34181645  0.96636898  1
  N  N141  1  0.16664390  0.46279733  0.56326296  1
  H  H142  1  0.06817137  0.33804719  0.75626535  1
  H  H143  1  0.22990944  0.47115234  0.98546683  1
  C  C144  1  0.21911376  0.18868209  0.79961867  1
  C  C145  1  0.17593033  0.03352427  0.63883992  1
  H  H146  1  0.23649692  0.10184255  0.62027264  1
  H  H147  1  0.05778042  0.43223310  0.72507146  1
  N  N148  1  0.24048594  0.04161612  0.93669766  1
  H  H149  1  0.10737828  0.47954432  0.61849215  1
  H  H150  1  0.00730333  0.49014490  0.72825720  1
  C  C151  1  0.00767104  0.32842661  0.94469083  1
  H  H152  1  0.19129931  0.17774300  0.94184379  1
  C  C153  1  0.08075058  0.49102689  0.58322198  1
  H  H154  1  0.16310948  0.08653306  0.98254182  1
  H  H155  1  0.13602476  0.10054754  0.90324301  1
  H  H156  1  0.01971094  0.03714444  0.66211580  1
  H  H157  1  0.22981710  0.45645153  0.55569293  1
  H  H158  1  0.24785729  0.27509885  0.60572064  1
  H  H159  1  0.22875698  0.00284389  0.69727914  1
  C  C160  1  0.15950517  0.33521274  0.99526188  1
  H  H161  1  0.11542361  0.85430522  0.20320611  1
  H  H162  1  0.09666935  0.56173115  0.25426319  1
  C  C163  1  0.02949859  0.86818724  0.19503784  1
  Zn  Zn164  1  0.11694501  0.71815245  0.27531143  1
  C  C165  1  0.12311671  0.79669369  0.19292188  1
  H  H166  1  0.01541676  0.85215766  0.47964937  1
  N  N167  1  0.12040708  0.62756068  0.02685075  1
  H  H168  1  0.03682791  0.52905920  0.06549093  1
  N  N169  1  0.12120653  0.54920519  0.48429640  1
  N  N170  1  0.16628104  0.59784905  0.15365668  1
  H  H171  1  0.05976356  0.79158727  0.46183896  1
  H  H172  1  0.03650288  0.57513727  0.22083196  1
  H  H173  1  0.11556466  0.87493305  0.42196321  1
  C  C174  1  0.10804122  0.82755344  0.38429665  1
  H  H175  1  0.06973797  0.96149558  0.25770870  1
  C  C176  1  0.04376033  0.95735568  0.37027196  1
  C  C177  1  0.04678957  0.91907469  0.14489597  1
  H  H178  1  0.13368791  0.93982601  0.30686790  1
  H  H179  1  0.23176383  0.68034420  0.17070177  1
  N  N180  1  0.13637548  0.78742717  0.13735738  1
  C  C181  1  0.23021292  0.78965625  0.10630901  1
  H  H182  1  0.16579887  0.86389714  0.27936899  1
  C  C183  1  0.17888113  0.76150488  0.38302604  1
  Zn  Zn184  1  0.15718372  0.69138089  0.08955100  1
  Zn  Zn185  1  0.12943054  0.53890359  0.08738778  1
  H  H186  1  0.21288101  0.78645277  0.15650661  1
  H  H187  1  0.07709980  0.83227478  0.35596283  1
  C  C188  1  0.06157632  0.98625592  0.30717735  1
  H  H189  1  0.05622390  0.97913226  0.14597357  1
  H  H190  1  0.13911425  0.83214078  0.10600025  1
  H  H191  1  0.02488534  0.88037075  0.25132444  1
  H  H192  1  0.03346997  0.89841529  0.38157800  1
  C  C193  1  0.08353384  0.61901777  0.25488859  1
  C  C194  1  0.13845088  0.78270167  0.36378120  1
  C  C195  1  0.16368108  0.92612609  0.28293848  1
  N  N196  1  0.21026968  0.74579484  0.06574014  1
  H  H197  1  0.19536555  0.78864064  0.42752694  1
  N  N198  1  0.04909869  0.62527946  0.23512280  1
  H  H199  1  0.19149784  0.67654067  0.30670326  1
  N  N200  1  0.20003985  0.71392832  0.34832132  1
  N  N201  1  0.20379288  0.95668000  0.17038738  1
  H  H202  1  0.07035157  0.71458953  0.05798644  1
  C  C203  1  0.18630864  0.58691364  0.20098564  1
  H  H204  1  0.03348141  0.74389639  0.00077014  1
  H  H205  1  0.20729702  0.58508277  0.24663448  1
  H  H206  1  0.19077363  0.93951003  0.31829414  1
  C  C207  1  0.03678917  0.73461240  0.05723334  1
  H  H208  1  0.01655986  0.68881323  0.07799719  1
  N  N209  1  0.05190737  0.87417018  0.09274487  1
  H  H210  1  0.18921433  0.89009361  0.03429134  1
  C  C211  1  0.12878574  0.61280419  0.45506679  1
  C  C212  1  0.03316375  0.80608659  0.10288374  1
  C  C213  1  0.16946258  0.96658653  0.21413271  1
  H  H214  1  0.15321480  0.62226301  0.41506216  1
  N  N215  1  0.13720852  0.90409059  0.02652953  1
  Zn  Zn216  1  0.07634458  0.91530346  0.00662859  1
  N  N217  1  0.02225294  0.79904435  0.16943968  1
  C  C218  1  0.10630426  0.66520329  0.49728642  1
  H  H219  1  0.01063827  0.68629739  0.39108960  1
  H  H220  1  0.10609353  0.72697646  0.49595914  1
  H  H221  1  0.06282124  0.52022541  0.35185502  1
  Zn  Zn222  1  0.00656717  0.70310883  0.22594771  1
  H  H223  1  0.19085923  0.98604626  0.41245239  1
  H  H224  1  0.06011968  0.51122200  0.44428027  1
  C  C225  1  0.08088248  0.91084178  0.64403645  1
  C  C226  1  0.21329843  0.83977673  0.85073611  1
  C  C227  1  0.05477347  0.83331810  0.57193903  1
  C  C228  1  0.15332250  0.69057164  0.81806264  1
  C  C229  1  0.20654228  0.98780943  0.65506064  1
  C  C230  1  0.00114764  0.63216564  0.77807288  1
  N  N231  1  0.06310128  0.54928826  0.81877266  1
  C  C232  1  0.08085267  0.79254759  0.90328573  1
  H  H233  1  0.17732178  0.57262537  0.55995131  1
  C  C234  1  0.22595861  0.53460787  0.97497411  1
  N  N235  1  0.06105863  0.90774320  0.58276848  1
  Zn  Zn236  1  0.05790976  0.68162204  0.63830618  1
  N  N237  1  0.06643013  0.79346760  0.62945394  1
  H  H238  1  0.03195362  0.58988875  0.50872290  1
  C  C239  1  0.09953274  0.63821135  0.98046101  1
  N  N240  1  0.20192070  0.64385891  0.91493037  1
  N  N241  1  0.05743851  0.84221228  0.93687934  1
  H  H242  1  0.20688901  0.55725037  0.69400321  1
  H  H243  1  0.15934382  0.89070213  0.88179452  1
  N  N244  1  0.06683114  0.60614757  0.71673302  1
  H  H245  1  0.13288472  0.65791417  0.78576384  1
  N  N246  1  0.01632065  0.77183992  0.87031681  1
  H  H247  1  0.17956572  0.54256008  0.88510889  1
  Zn  Zn248  1  0.22774396  0.72522285  0.96638915  1
  H  H249  1  0.06044904  0.70504374  0.82358537  1
  H  H250  1  0.08054173  0.65872235  0.93822553  1
  H  H251  1  0.20673116  0.92907643  0.64011353  1
  C  C252  1  0.01812688  0.82991604  0.91910186  1
  N  N253  1  0.08582137  0.63107447  0.54828003  1
  C  C254  1  0.17489355  0.65514240  0.86675719  1
  C  C255  1  0.05377546  0.74893377  0.86055266  1
  C  C256  1  0.08597232  0.83756876  0.67225653  1
  C  C257  1  0.04403718  0.59490985  0.77178243  1
  H  H258  1  0.11447143  0.78377299  0.91479374  1
  H  H259  1  0.09699939  0.82198971  0.72206695  1
  C  C260  1  0.09893332  0.52820123  0.78991870  1
  C  C261  1  0.10181814  0.56677770  0.72539771  1
  N  N262  1  0.20554932  0.81944919  0.91274594  1
  H  H263  1  0.12709995  0.57363861  0.69020587  1
  H  H264  1  0.09325718  0.95954043  0.66822748  1
  H  H265  1  0.15272245  0.75193121  0.81465108  1
  C  C266  1  0.19957030  0.56877340  0.92767477  1
  H  H267  1  0.05576374  0.50844598  0.61941914  1
  C  C268  1  0.17082190  0.85888736  0.92552437  1
  C  C269  1  0.09421065  0.55679606  0.53865032  1
  C  C270  1  0.23544450  0.84216015  0.79314076  1
  H  H271  1  0.23012420  0.88378446  0.75017007  1
  H  H272  1  0.01280648  0.75844997  0.51004398  1
  C  C273  1  0.17840124  0.52326562  0.59188976  1
  C  C274  1  0.19372718  0.51375250  0.66148327  1
  H  H275  1  0.00051640  0.66795836  0.82425546  1
  H  H276  1  0.24516389  0.63706048  0.50861601  1
  H  H277  1  0.07471127  0.51142647  0.93334264  1
  Zn  Zn278  1  0.03847544  0.99662752  0.52064401  1
  C  C279  1  0.03508923  0.80657444  0.50233813  1
  C  C280  1  0.16581713  0.88653881  0.99524817  1
  N  N281  1  0.27061921  0.42376919  0.07305014  1
  C  C282  1  0.31213391  0.19117990  0.22860278  1
  N  N283  1  0.28150135  0.40111577  0.40962495  1
  H  H284  1  0.31118037  0.43442695  0.21769211  1
  Zn  Zn285  1  0.26905470  0.10285701  0.45233002  1
  H  H286  1  0.49832818  0.01141715  0.05797770  1
  N  N287  1  0.37515514  0.04947933  0.37783219  1
  H  H288  1  0.42537452  0.15991419  0.19466292  1
  H  H289  1  0.36246028  0.07807086  0.04708824  1
  C  C290  1  0.28255989  0.36238501  0.03184260  1
  H  H291  1  0.48250386  0.31479704  0.38206178  1
  H  H292  1  0.31461302  0.30194430  0.18739141  1
  H  H293  1  0.32202775  0.01994566  0.27808992  1
  N  N294  1  0.43778033  0.21057088  0.10477238  1
  N  N295  1  0.28467862  0.10749367  0.00126381  1
  H  H296  1  0.46979725  0.48491562  0.45193513  1
  C  C297  1  0.39992437  0.18645594  0.22459845  1
  N  N298  1  0.32106158  0.13797670  0.28171931  1
  H  H299  1  0.32362669  0.29702294  0.28224860  1
  C  C300  1  0.42801661  0.03921430  0.22471146  1
  N  N301  1  0.27070543  0.29636844  0.05774502  1
  C  C302  1  0.38969750  0.28839907  0.07182635  1
  C  C303  1  0.38972705  0.08946502  0.08347842  1
  C  C304  1  0.30481697  0.49239695  0.23094870  1
  Zn  Zn305  1  0.34005157  0.34248386  0.45514817  1
  C  C306  1  0.45665859  0.28180797  0.36013107  1
  C  C307  1  0.31416540  0.26830174  0.23448800  1
  H  H308  1  0.46272462  0.12872808  0.38788403  1
  Zn  Zn309  1  0.34502990  0.15702443  0.37924184  1
  N  N310  1  0.45730619  0.04566465  0.17644442  1
  N  N311  1  0.45281622  0.26180151  0.29456128  1
  N  N312  1  0.30287639  0.15228510  0.16339115  1
  H  H313  1  0.41209119  0.25340925  0.45400865  1
  C  C314  1  0.41765224  0.22060653  0.28932609  1
  C  C315  1  0.40280721  0.17425076  0.08151879  1
  H  H316  1  0.42964636  0.14196046  0.45702729  1
  N  N317  1  0.30534623  0.19078083  0.45007206  1
  C  C318  1  0.44490189  0.09721829  0.42721496  1
  H  H319  1  0.27807038  0.35267612  0.30644363  1
  C  C320  1  0.42178489  0.25361660  0.39761104  1
  H  H321  1  0.37597064  0.14360817  0.23797614  1
  C  C322  1  0.47128406  0.43117211  0.48223354  1
  H  H323  1  0.38570078  0.22950622  0.19047891  1
  N  N324  1  0.39957686  0.21556623  0.35479336  1
  Zn  Zn325  1  0.30387390  0.19596848  0.06151741  1
  H  H326  1  0.37007683  0.33980541  0.06528870  1
  N  N327  1  0.49239744  0.40921247  0.20948696  1
  N  N328  1  0.37208311  0.21966852  0.06223854  1
  C  C329  1  0.31561680  0.07226822  0.24949051  1
  C  C330  1  0.30507039  0.08055850  0.18005128  1
  H  H331  1  0.37753722  0.48810948  0.16472980  1
  C  C332  1  0.43093558  0.28320848  0.09567015  1
  C  C333  1  0.41581140  0.03739485  0.39348230  1
  C  C334  1  0.42062094  0.45809363  0.07357924  1
  H  H335  1  0.46625901  0.07058034  0.46553338  1
  H  H336  1  0.41931490  0.07790506  0.26864935  1
  Zn  Zn337  1  0.49074781  0.13562774  0.16356052  1
  C  C338  1  0.30078986  0.25323636  0.48842997  1
  H  H339  1  0.44754733  0.43682068  0.09822010  1
  H  H340  1  0.45282654  0.32861750  0.11050238  1
  Zn  Zn341  1  0.49155490  0.30151307  0.21421574  1
  H  H342  1  0.40436189  0.44590080  0.42959363  1
  H  H343  1  0.30374106  0.03624611  0.13972795  1
  H  H344  1  0.47367853  0.41990182  0.25076070  1
  H  H345  1  0.49896797  0.01394956  0.28793713  1
  H  H346  1  0.37795105  0.07508684  0.13553931  1
  H  H347  1  0.41524064  0.04986562  0.07709123  1
  N  N348  1  0.40415885  0.40100103  0.45903640  1
  C  C349  1  0.38457639  0.48606398  0.10826455  1
  N  N350  1  0.41669297  0.46869960  0.00502160  1
  C  C351  1  0.26204374  0.38792068  0.34729023  1
  H  H352  1  0.46766563  0.20183370  0.00332478  1
  N  N353  1  0.26189362  0.00217654  0.40327941  1
  C  C354  1  0.43727899  0.38317758  0.49278501  1
  H  H355  1  0.35073249  0.03950434  0.47619127  1
  H  H356  1  0.42792817  0.29675884  0.94282842  1
  N  N357  1  0.42241010  0.41518215  0.85737896  1
  N  N358  1  0.36271904  0.24108826  0.65850228  1
  H  H359  1  0.49652314  0.29465518  0.72340645  1
  C  C360  1  0.35497808  0.11600054  0.83143496  1
  H  H361  1  0.43256966  0.24115457  0.87416581  1
  H  H362  1  0.36219835  0.43747982  0.72124573  1
  H  H363  1  0.43416336  0.30593052  0.72933269  1
  C  C364  1  0.37760127  0.49506243  0.99690021  1
  C  C365  1  0.34693083  0.25734748  0.60235169  1
  C  C366  1  0.41191740  0.28248649  0.89636931  1
  C  C367  1  0.29578753  0.09712428  0.67311280  1
  H  H368  1  0.38269782  0.25560276  0.91224293  1
  N  N369  1  0.33401055  0.08944409  0.64674140  1
  C  C370  1  0.46543177  0.12451874  0.60757508  1
  C  C371  1  0.30349701  0.04445447  0.98169074  1
  C  C372  1  0.43629250  0.31028819  0.67226085  1
  C  C373  1  0.37936738  0.42118778  0.76921137  1
  H  H374  1  0.34025227  0.17083619  0.71846389  1
  Zn  Zn375  1  0.38628253  0.13631307  0.68497810  1
  H  H376  1  0.27915247  0.18350665  0.86622627  1
  C  C377  1  0.46764284  0.15541280  0.96264988  1
  N  N378  1  0.29019385  0.07508811  0.55631872  1
  H  H379  1  0.28365061  0.43293975  0.53968787  1
  N  N380  1  0.37445146  0.15394740  0.79278808  1
  H  H381  1  0.36030171  0.47027068  0.88960286  1
  C  C382  1  0.40302302  0.34988574  0.84967168  1
  H  H383  1  0.33426397  0.32906290  0.96220401  1
  H  H384  1  0.40374266  0.31393886  0.65369894  1
  H  H385  1  0.32200622  0.02934491  0.77199046  1
  C  C386  1  0.33257477  0.27741009  0.54734801  1
  C  C387  1  0.45565305  0.23996074  0.63965293  1
  N  N388  1  0.44258985  0.16706557  0.64471635  1
  N  N389  1  0.27937606  0.23920754  0.77001852  1
  H  H390  1  0.34249468  0.00015959  0.85972224  1
  H  H391  1  0.42677106  0.11799893  0.84924781  1
  C  C392  1  0.33039683  0.07621962  0.57654141  1
  H  H393  1  0.28688285  0.36488303  0.91789960  1
  C  C394  1  0.49469667  0.17441272  0.57429295  1
  C  C395  1  0.25806247  0.46430405  0.52015407  1
  C  C396  1  0.41467700  0.03354534  0.94536918  1
  C  C397  1  0.26925716  0.08933781  0.61623203  1
  Zn  Zn398  1  0.34557704  0.25750818  0.75282790  1
  H  H399  1  0.45333849  0.36131640  0.65261919  1
  N  N400  1  0.37395720  0.35263350  0.79606900  1
  C  C401  1  0.36330223  0.07525499  0.51920081  1
  C  C402  1  0.40820633  0.46235949  0.80814630  1
  C  C403  1  0.32658838  0.04590333  0.82908900  1
  H  H404  1  0.32110053  0.42525783  0.95881906  1
  H  H405  1  0.28655492  0.11978425  0.72491282  1
  C  C406  1  0.39684501  0.14937952  0.84115767  1
  H  H407  1  0.43887837  0.16292388  0.92856457  1
  Zn  Zn408  1  0.46201430  0.45761220  0.93340981  1
  H  H409  1  0.29519037  0.31091836  0.65214749  1
  C  C410  1  0.30775621  0.37002066  0.96590761  1
  H  H411  1  0.42889439  0.02459167  0.99828694  1
  H  H412  1  0.45774369  0.06565695  0.59904453  1
  H  H413  1  0.43875476  0.33006551  0.52413504  1
  N  N414  1  0.48814187  0.24378344  0.59467355  1
  H  H415  1  0.46252277  0.09967541  0.99055718  1
  H  H416  1  0.39009052  0.07858744  0.94328745  1
  H  H417  1  0.48892113  0.00639500  0.78888820  1
  H  H418  1  0.27320996  0.22852492  0.50915206  1
  C  C419  1  0.26179623  0.20329599  0.82046704  1
  H  H420  1  0.29668758  0.05385891  0.85581594  1
  H  H421  1  0.39346067  0.04932006  0.53943124  1
  C  C422  1  0.26060791  0.30029320  0.65459930  1
  C  C423  1  0.25035422  0.25566872  0.72132974  1
  H  H424  1  0.37040142  0.13311190  0.50200638  1
  H  H425  1  0.39775473  0.49650257  0.56894187  1
  N  N426  1  0.31052228  0.49605229  0.63496546  1
  H  H427  1  0.35610636  0.48720779  0.50850297  1
  H  H428  1  0.33588375  0.02346566  0.99646647  1
  H  H429  1  0.37567413  0.84566737  0.04181493  1
  C  C430  1  0.29437076  0.52592169  0.29445161  1
  H  H431  1  0.27736442  0.72582272  0.19648089  1
  H  H432  1  0.38597356  0.61346314  0.07300937  1
  H  H433  1  0.32046866  0.89880349  0.07638324  1
  C  C434  1  0.48585248  0.95885462  0.08203189  1
  H  H435  1  0.38533921  0.86453763  0.38807321  1
  C  C436  1  0.29548380  0.87949032  0.10861855  1
  H  H437  1  0.37678650  0.94924684  0.23900434  1
  C  C438  1  0.39987817  0.86619459  0.00360359  1
  C  C439  1  0.49080701  0.75880361  0.05543708  1
  N  N440  1  0.38813400  0.65979808  0.10286954  1
  N  N441  1  0.45288269  0.78124441  0.06469491  1
  H  H442  1  0.40832670  0.69257321  0.07464830  1
  H  H443  1  0.40568669  0.72998599  0.27086009  1
  Zn  Zn444  1  0.47835582  0.91255310  0.42770938  1
  H  H445  1  0.34768700  0.74654170  0.34048216  1
  N  N446  1  0.28038479  0.59703853  0.28562381  1
  C  C447  1  0.30538389  0.69060525  0.48252180  1
  N  N448  1  0.30430222  0.70343880  0.41353998  1
  H  H449  1  0.27992014  0.92530791  0.48386184  1
  Zn  Zn450  1  0.29844080  0.52984644  0.07542298  1
  C  C451  1  0.47843155  0.87591471  0.27479358  1
  H  H452  1  0.28247019  0.82934730  0.37481653  1
  C  C453  1  0.28150915  0.60713408  0.21706964  1
  C  C454  1  0.27319465  0.88697990  0.37469280  1
  N  N455  1  0.26120396  0.92045909  0.31455099  1
  C  C456  1  0.36470747  0.73422627  0.45189701  1
  H  H457  1  0.47200382  0.92434108  0.04030630  1
  C  C458  1  0.27126208  0.93608702  0.43076683  1
  N  N459  1  0.45982448  0.82631967  0.48756433  1
  H  H460  1  0.44565557  0.89433222  0.27244662  1
  C  C461  1  0.45588216  0.98204640  0.13847471  1
  C  C462  1  0.38910159  0.92670590  0.38478256  1
  H  H463  1  0.32372101  0.97249332  0.36500061  1
  C  C464  1  0.39027275  0.66361114  0.17602667  1
  H  H465  1  0.49578226  0.83672604  0.16314151  1
  N  N466  1  0.29750731  0.54350360  0.18441894  1
  H  H467  1  0.37395832  0.61667224  0.19712379  1
  N  N468  1  0.42299757  0.96264981  0.39724373  1
  Zn  Zn469  1  0.26886894  0.88801122  0.20661824  1
  H  H470  1  0.27802601  0.67099536  0.12269021  1
  C  C471  1  0.35781268  0.98290552  0.37443876  1
  C  C472  1  0.40712466  0.72107961  0.21339164  1
  C  C473  1  0.40465424  0.97097386  0.21197422  1
  C  C474  1  0.26648247  0.83483234  0.09167924  1
  C  C475  1  0.34009734  0.72966753  0.39181498  1
  C  C476  1  0.26545689  0.67340810  0.17530101  1
  H  H477  1  0.39617239  0.75432328  0.45520618  1
  H  H478  1  0.42785336  0.75635191  0.18378145  1
  N  N479  1  0.42332261  0.93659125  0.16149527  1
  Zn  Zn480  1  0.25519985  0.67349921  0.35691778  1
  N  N481  1  0.25384278  0.57197091  0.01029799  1
  H  H482  1  0.40250353  0.92861436  0.01464685  1
  C  C483  1  0.25305515  0.99242346  0.33537413  1
  H  H484  1  0.32010798  0.77666507  0.02725799  1
  H  H485  1  0.49821214  0.62641386  0.32903197  1
  C  C486  1  0.47626907  0.75788309  0.49044386  1
  H  H487  1  0.26223952  0.62862619  0.01295793  1
  H  H488  1  0.49999830  0.71963972  0.36456560  1
  N  N489  1  0.35765065  0.50059122  0.05944685  1
  H  H490  1  0.48113001  0.58652591  0.05056792  1
  C  C491  1  0.43994180  0.81954594  0.00566235  1
  H  H492  1  0.28996296  0.50711690  0.34949719  1
  H  H493  1  0.32459268  0.84297718  0.55520068  1
  H  H494  1  0.45892680  0.65200817  0.55415215  1
  C  C495  1  0.45457460  0.70983333  0.53863486  1
  H  H496  1  0.32178063  0.75044827  0.81259679  1
  C  C497  1  0.32214285  0.73975002  0.98327997  1
  H  H498  1  0.29527362  0.65827237  0.71559384  1
  H  H499  1  0.29329700  0.95329509  0.64594739  1
  H  H500  1  0.30308871  0.61310090  0.79730260  1
  N  N501  1  0.34437686  0.71312005  0.50966867  1
  H  H502  1  0.36920076  0.88906411  0.50909505  1
  N  N503  1  0.29086615  0.71501307  0.94403650  1
  H  H504  1  0.41197987  0.94651587  0.52450165  1
  Zn  Zn505  1  0.47445807  0.86107743  0.86042590  1
  C  C506  1  0.36952196  0.52598866  0.54969673  1
  H  H507  1  0.28497974  0.62862086  0.57554851  1
  N  N508  1  0.46575400  0.56972251  0.90211676  1
  C  C509  1  0.47896983  0.60239413  0.83690159  1
  N  N510  1  0.34966009  0.66968720  0.90147120  1
  N  N511  1  0.33221411  0.61285655  0.63372585  1
  N  N512  1  0.41304112  0.66580093  0.69055354  1
  H  H513  1  0.30508211  0.89687468  0.76967866  1
  Zn  Zn514  1  0.45388362  0.73740173  0.74178167  1
  N  N515  1  0.46051949  0.67389853  0.83325363  1
  C  C516  1  0.44177699  0.68648329  0.89321664  1
  C  C517  1  0.42149073  0.99284784  0.88930067  1
  H  H518  1  0.37273519  0.78570732  0.80756938  1
  C  C519  1  0.27175318  0.66792320  0.53313804  1
  H  H520  1  0.42336776  0.74104153  0.89513671  1
  C  C521  1  0.33453079  0.80959296  0.71825350  1
  N  N522  1  0.31324823  0.87568278  0.72260400  1
  H  H523  1  0.38718315  0.99598868  0.77779089  1
  H  H524  1  0.42646454  0.61051496  0.98440319  1
  C  C525  1  0.29035035  0.53535788  0.68280736  1
  H  H526  1  0.36018504  0.69724703  0.76330863  1
  C  C527  1  0.34754383  0.75732608  0.77937600  1
  H  H528  1  0.38613225  0.86207568  0.94859597  1
  H  H529  1  0.39143122  0.56173276  0.68173644  1
  H  H530  1  0.37262323  0.57012544  0.90141191  1
  C  C531  1  0.40984286  0.95150784  0.78908165  1
  C  C532  1  0.39801783  0.89230402  0.54054904  1
  C  C533  1  0.41822627  0.88808692  0.74604963  1
  H  H534  1  0.43310815  0.57822055  0.75208121  1
  H  H535  1  0.39985374  0.86713348  0.70183157  1
  C  C536  1  0.41298404  0.59686027  0.70740902  1
  C  C537  1  0.30638407  0.89909093  0.65663005  1
  N  N538  1  0.44467353  0.84062801  0.77233387  1
  C  C539  1  0.44240667  0.62297930  0.93483685  1
  H  H540  1  0.39200156  0.71625028  0.97083591  1
  C  C541  1  0.32270317  0.84463097  0.61214971  1
  C  C542  1  0.35946711  0.71086275  0.95603254  1
  C  C543  1  0.42667883  0.82461092  0.53157739  1
  C  C544  1  0.30581732  0.66929317  0.89667702  1
  N  N545  1  0.34035843  0.79181436  0.65243225  1
  Zn  Zn546  1  0.37290602  0.70672092  0.61332425  1
  H  H547  1  0.49720734  0.83920516  0.57385129  1
  H  H548  1  0.41811180  0.52232915  0.80759505  1
  N  N549  1  0.43385346  0.94298129  0.84469023  1
  C  C550  1  0.28213799  0.62200969  0.84466150  1
  H  H551  1  0.38752391  0.89977351  0.59542857  1
  C  C552  1  0.33711777  0.54412413  0.60332358  1
  H  H553  1  0.46467712  0.54540951  0.64765735  1
  C  C554  1  0.30474347  0.60981402  0.68448190  1
  N  N555  1  0.42306806  0.75317643  0.55667864  1
  N  N556  1  0.47039991  0.81844217  0.95913515  1
  H  H557  1  0.32579041  0.53468397  0.93352896  1
  C  C558  1  0.35749215  0.51823921  0.92595387  1
  H  H559  1  0.25360575  0.64971459  0.82736496  1
  H  H560  1  0.25771063  0.79596011  0.77695579  1
  H  H561  1  0.25935159  0.71700590  0.56085163  1
  H  H562  1  0.27346885  0.56794779  0.86821875  1
  H  H563  1  0.27279109  0.93987553  0.92808014  1
  C  C564  1  0.49105369  0.56322222  0.61614017  1
  H  H565  1  0.26503895  0.50700975  0.71034147  1
  H  H566  1  0.38010359  0.57904613  0.52156091  1
  C  C567  1  0.27428850  0.99985590  0.94657721  1
  H  H568  1  0.27006235  0.52331971  0.52687609  1
  H  H569  1  0.55792724  0.24312372  0.19740408  1
  H  H570  1  0.71661768  0.33747935  0.39285037  1
  C  C571  1  0.53464377  0.46748672  0.48944112  1
  H  H572  1  0.55701453  0.28311769  0.28800962  1
  H  H573  1  0.53240723  0.24678902  0.37647545  1
  C  C574  1  0.52963658  0.03759495  0.47553460  1
  H  H575  1  0.68816576  0.12791833  0.13746922  1
  H  H576  1  0.50548673  0.24836961  0.45738803  1
  C  C577  1  0.52055654  0.06349632  0.29383420  1
  C  C578  1  0.72434014  0.20014790  0.39343827  1
  N  N579  1  0.52952792  0.17237619  0.10142646  1
  C  C580  1  0.57081973  0.23940170  0.25164096  1
  N  N581  1  0.57935186  0.11971531  0.32369038  1
  C  C582  1  0.66673616  0.12638648  0.18188140  1
  H  H583  1  0.67251926  0.31196437  0.33441966  1
  C  C584  1  0.52237536  0.31125467  0.12166763  1
  H  H585  1  0.51947898  0.07227876  0.43359175  1
  H  H586  1  0.54199257  0.40756720  0.06138883  1
  C  C587  1  0.57293556  0.24308159  0.47042905  1
  C  C588  1  0.53263631  0.22223022  0.43139191  1
  H  H589  1  0.70148256  0.20619940  0.43541145  1
  C  C590  1  0.53596642  0.24376213  0.09136821  1
  N  N591  1  0.52249317  0.12460431  0.25353148  1
  H  H592  1  0.60444800  0.24229462  0.25267301  1
  C  C593  1  0.50917079  0.44165766  0.15577474  1
  H  H594  1  0.62315039  0.38423760  0.05220404  1
  C  C595  1  0.65070245  0.11693681  0.03177155  1
  N  N596  1  0.61179255  0.21328358  0.45940533  1
  H  H597  1  0.63417673  0.11152555  0.16724833  1
  H  H598  1  0.56183985  0.04097763  0.20183463  1
  H  H599  1  0.59654703  0.49349499  0.49254337  1
  H  H600  1  0.74041936  0.17815758  0.28302674  1
  H  H601  1  0.60815021  0.26577549  0.08886082  1
  Zn  Zn602  1  0.62918398  0.15610025  0.37463958  1
  N  N603  1  0.61565462  0.47828066  0.12759330  1
  N  N604  1  0.67706152  0.16701214  0.30906213  1
  C  C605  1  0.55742217  0.16208703  0.27623347  1
  C  C606  1  0.71730745  0.18211085  0.32276852  1
  N  N607  1  0.68545684  0.16374634  0.03374442  1
  C  C608  1  0.55768989  0.05787853  0.33440052  1
  C  C609  1  0.67797049  0.14834433  0.24495360  1
  C  C610  1  0.52648756  0.38808622  0.10810123  1
  C  C611  1  0.69548456  0.41842647  0.32001184  1
  H  H612  1  0.69112957  0.27868685  0.06459939  1
  C  C613  1  0.62780616  0.22506589  0.06105569  1
  N  N614  1  0.58441024  0.46994365  0.25717512  1
  C  C615  1  0.67098436  0.22981685  0.05523473  1
  C  C616  1  0.69394013  0.35549904  0.35426703  1
  Zn  Zn617  1  0.55979784  0.10239530  0.04837737  1
  N  N618  1  0.61585253  0.15467681  0.04335196  1
  H  H619  1  0.52630876  0.16136767  0.43001627  1
  C  C620  1  0.62076859  0.42819620  0.09085484  1
  H  H621  1  0.55581738  0.24287194  0.04667112  1
  N  N622  1  0.68999347  0.47206615  0.27785281  1
  H  H623  1  0.56361361  0.45450814  0.21908477  1
  C  C624  1  0.65555376  0.03505634  0.00913410  1
  C  C625  1  0.57010595  0.46544028  0.31169256  1
  H  H626  1  0.55433761  0.45973802  0.36240371  1
  H  H627  1  0.56468979  0.01251268  0.37282481  1
  H  H628  1  0.68842699  0.01929584  0.00227701  1
  C  C629  1  0.57232083  0.33277404  0.95820184  1
  C  C630  1  0.74201201  0.07873150  0.85741263  1
  N  N631  1  0.53687991  0.37211933  0.67352867  1
  C  C632  1  0.63047330  0.30743065  0.75672232  1
  C  C633  1  0.58523481  0.15828425  0.67130571  1
  C  C634  1  0.55560682  0.45110814  0.94195999  1
  N  N635  1  0.51994767  0.41307569  0.94227212  1
  H  H636  1  0.57761752  0.10442545  0.53370337  1
  C  C637  1  0.63634489  0.22473999  0.51257607  1
  H  H638  1  0.73892752  0.13962127  0.87775051  1
  N  N639  1  0.66819600  0.07175874  0.81310280  1
  H  H640  1  0.62008133  0.29236538  0.60860170  1
  H  H641  1  0.57508703  0.27818117  0.69356707  1
  H  H642  1  0.53378928  0.36232148  0.84220594  1
  C  C643  1  0.56315351  0.42633717  0.69213949  1
  N  N644  1  0.54508114  0.13104456  0.94354728  1
  H  H645  1  0.60522624  0.12430329  0.89471394  1
  C  C646  1  0.74705741  0.48761068  0.72107784  1
  H  H647  1  0.51781811  0.15915882  0.53794299  1
  Zn  Zn648  1  0.52690732  0.33443091  0.57454871  1
  N  N649  1  0.63021483  0.23885779  0.73634638  1
  H  H650  1  0.67174537  0.37214144  0.81555715  1
  H  H651  1  0.64473075  0.47777318  0.93976174  1
  C  C652  1  0.52831489  0.34158747  0.95528214  1
  C  C653  1  0.51883323  0.34422587  0.72896783  1
  N  N654  1  0.60406555  0.09649567  0.68629683  1
  C  C655  1  0.59466374  0.22869071  0.70081095  1
  N  N656  1  0.58855454  0.40027763  0.95323663  1
  N  N657  1  0.56353864  0.43126715  0.76389261  1
  C  C658  1  0.71922415  0.12536737  0.55288502  1
  H  H659  1  0.55889853  0.17488841  0.78027920  1
  C  C660  1  0.69650581  0.11152523  0.61486735  1
  H  H661  1  0.65961129  0.32782694  0.94010466  1
  H  H662  1  0.62463759  0.42035995  0.77889786  1
  H  H663  1  0.62789999  0.09649276  0.72304723  1
  H  H664  1  0.59266764  0.28529567  0.96506842  1
  H  H665  1  0.59258121  0.44204791  0.58973146  1
  C  C666  1  0.64325626  0.37108298  0.78407660  1
  C  C667  1  0.61186241  0.27209061  0.55634672  1
  H  H668  1  0.66929104  0.20214213  0.52033154  1
  H  H669  1  0.55990763  0.15172221  0.63548097  1
  C  C670  1  0.73905681  0.29093200  0.65851230  1
  H  H671  1  0.53520546  0.05563982  0.76332732  1
  H  H672  1  0.60433750  0.03561493  0.79287484  1
  C  C673  1  0.53875362  0.37670667  0.78714668  1
  N  N674  1  0.50736000  0.41984611  0.51367965  1
  C  C675  1  0.57218461  0.13738283  0.89102823  1
  H  H676  1  0.72121022  0.30413768  0.70631573  1
  H  H677  1  0.66602815  0.22768365  0.94097629  1
  C  C678  1  0.72951661  0.21499319  0.62857373  1
  C  C679  1  0.54948103  0.16102519  0.83298493  1
  Zn  Zn680  1  0.67691641  0.17095629  0.76271059  1
  N  N681  1  0.72136861  0.22976570  0.82112664  1
  C  C682  1  0.50750811  0.15109900  0.91985377  1
  N  N683  1  0.70347386  0.16541629  0.66147685  1
  H  H684  1  0.50615179  0.29741164  0.96547304  1
  H  H685  1  0.67271498  0.06817579  0.62507990  1
  C  C686  1  0.63458556  0.02961701  0.82167185  1
  H  H687  1  0.64107026  0.27116839  0.86912481  1
  C  C688  1  0.56020695  0.05036352  0.52628692  1
  C  C689  1  0.69881344  0.04112445  0.85084649  1
  N  N690  1  0.57318912  0.28160460  0.53117958  1
  C  C691  1  0.66722634  0.27652259  0.90809718  1
  C  C692  1  0.71054385  0.27244126  0.87497449  1
  H  H693  1  0.73526460  0.33616872  0.62143484  1
  C  C694  1  0.52236715  0.01190356  0.79789375  1
  N  N695  1  0.73878699  0.18986306  0.56286490  1
  N  N696  1  0.50977367  0.17018427  0.85140061  1
  H  H697  1  0.72148438  0.09208193  0.50407388  1
  H  H698  1  0.67797902  0.46461363  0.86427581  1
  H  H699  1  0.52580570  0.02583582  0.85142762  1
  H  H700  1  0.64152395  0.02082775  0.95749550  1
  N  N701  1  0.74484983  0.31423060  0.89513991  1
  C  C702  1  0.58240233  0.47629190  0.63643209  1
  C  C703  1  0.67279361  0.49900808  0.91179487  1
  H  H704  1  0.74746137  0.42149177  0.81924601  1
  H  H705  1  0.58829749  0.78422499  0.36836499  1
  C  C706  1  0.70997441  0.74488414  0.07445858  1
  H  H707  1  0.56481373  0.85527318  0.42309533  1
  H  H708  1  0.65883578  0.69453595  0.36740323  1
  H  H709  1  0.65245491  0.60915713  0.34316042  1
  C  C710  1  0.70708978  0.59384855  0.26212648  1
  C  C711  1  0.71978898  0.52403870  0.29221060  1
  N  N712  1  0.71760253  0.75843439  0.35330285  1
  H  H713  1  0.50948388  0.72993172  0.09230293  1
  N  N714  1  0.70958084  0.76317322  0.00549262  1
  N  N715  1  0.57078430  0.99421140  0.06383237  1
  H  H716  1  0.68281592  0.89121256  0.10834947  1
  C  C717  1  0.59725911  0.65949289  0.36350900  1
  N  N718  1  0.51735344  0.96721496  0.48610982  1
  H  H719  1  0.62016939  0.67995128  0.03255431  1
  N  N720  1  0.67195045  0.71452051  0.09174915  1
  C  C721  1  0.51729996  0.67913594  0.32983695  1
  H  H722  1  0.50279034  0.74561817  0.45856635  1
  H  H723  1  0.67441387  0.95975178  0.17851732  1
  C  C724  1  0.68975382  0.90299057  0.16558639  1
  H  H725  1  0.58288425  0.67173457  0.23520587  1
  H  H726  1  0.60032935  0.88470425  0.36122749  1
  N  N727  1  0.54170889  0.83842558  0.24910687  1
  N  N728  1  0.63860039  0.65005246  0.37542171  1
  C  C729  1  0.66973550  0.81108901  0.27983123  1
  N  N730  1  0.58707840  0.67975508  0.18342331  1
  C  C731  1  0.69286818  0.80906691  0.34655209  1
  C  C732  1  0.57681141  0.84221756  0.36832748  1
  H  H733  1  0.73796581  0.76135552  0.17392487  1
  C  C734  1  0.57312943  0.94479869  0.01293217  1
  C  C735  1  0.56107461  0.67032295  0.35320626  1
  C  C736  1  0.74646276  0.76317102  0.12014819  1
  Zn  Zn737  1  0.58775040  0.79790604  0.19135870  1
  C  C738  1  0.67397626  0.84500345  0.21587948  1
  H  H739  1  0.71733212  0.95072971  0.03285783  1
  C  C740  1  0.53974373  0.59708530  0.09773221  1
  N  N741  1  0.64782400  0.78776625  0.22306339  1
  H  H742  1  0.50929576  0.50277131  0.15059118  1
  C  C743  1  0.57675800  0.95883586  0.12469031  1
  H  H744  1  0.68928581  0.84407059  0.39389286  1
  C  C745  1  0.58492234  0.87613349  0.04631186  1
  H  H746  1  0.59512188  0.82255472  0.02415888  1
  N  N747  1  0.58487382  0.88342741  0.11439915  1
  C  C748  1  0.53883261  0.85345257  0.31751453  1
  C  C749  1  0.56400523  0.63458021  0.14109749  1
  Zn  Zn750  1  0.65063159  0.68597003  0.18205304  1
  H  H751  1  0.72378349  0.91228411  0.17170010  1
  N  N752  1  0.67344842  0.59632901  0.22554588  1
  Zn  Zn753  1  0.64120898  0.50461682  0.22096941  1
  C  C754  1  0.65113494  0.71037904  0.03105087  1
  H  H755  1  0.56466415  0.55695651  0.44020922  1
  H  H756  1  0.56256044  0.94960746  0.23539320  1
  N  N757  1  0.50027710  0.87538502  0.33307228  1
  H  H758  1  0.73648931  0.75168107  0.39299596  1
  C  C759  1  0.51239131  0.56577052  0.05709819  1
  Zn  Zn760  1  0.74883378  0.67926499  0.27978682  1
  H  H761  1  0.59358887  0.51764976  0.11136740  1
  H  H762  1  0.51811045  0.70640628  0.27774717  1
  C  C763  1  0.50425125  0.84894233  0.22012671  1
  H  H764  1  0.64385052  0.99497065  0.04818575  1
  H  H765  1  0.74690611  0.51354735  0.32586440  1
  H  H766  1  0.51208883  0.92502589  0.10508694  1
  H  H767  1  0.72582316  0.63914629  0.00055302  1
  H  H768  1  0.52165288  0.51536232  0.02353742  1
  C  C769  1  0.56647509  0.51013199  0.47518624  1
  H  H770  1  0.60824674  0.99520629  0.22021467  1
  C  C771  1  0.57830610  0.98703362  0.19927533  1
  H  H772  1  0.69714457  0.83566718  0.49993391  1
  C  C773  1  0.56205054  0.53430678  0.93805172  1
  C  C774  1  0.50787405  0.63036486  0.63261144  1
  H  H775  1  0.55071641  0.72464668  0.62672847  1
  C  C776  1  0.67333011  0.74678826  0.97759870  1
  C  C777  1  0.55675974  0.81463576  0.79765080  1
  C  C778  1  0.72394786  0.70822490  0.82928231  1
  C  C779  1  0.53052372  0.85587841  0.56744056  1
  C  C780  1  0.72094641  0.70596211  0.75591651  1
  C  C781  1  0.66601340  0.88966790  0.65651726  1
  N  N782  1  0.73814428  0.77414641  0.84933658  1
  C  C783  1  0.52448449  0.69706059  0.65039767  1
  H  H784  1  0.74084891  0.52390505  0.82799882  1
  C  C785  1  0.64673427  0.90886029  0.54738139  1
  H  H786  1  0.53209636  0.56645161  0.93413813  1
  N  N787  1  0.53321149  0.87189074  0.81612766  1
  H  H788  1  0.53140701  0.77668184  0.96287276  1
  N  N789  1  0.69616276  0.85003929  0.60669302  1
  C  C790  1  0.68161126  0.86234234  0.54386501  1
  H  H791  1  0.71520049  0.66285264  0.86447427  1
  H  H792  1  0.58073324  0.55281031  0.98347922  1
  N  N793  1  0.68454488  0.97404338  0.87972159  1
  C  C794  1  0.53822168  0.93686667  0.54192725  1
  H  H795  1  0.57217460  0.95956168  0.95592797  1
  H  H796  1  0.54745620  0.75662832  0.80804283  1
  C  C797  1  0.50492799  0.56766606  0.79019442  1
  N  N798  1  0.63939503  0.92638639  0.61317746  1
  N  N799  1  0.57506436  0.91930565  0.73720136  1
  H  H800  1  0.66658482  0.75878692  0.92298237  1
  C  C801  1  0.54489523  0.93526282  0.78439984  1
  H  H802  1  0.62637218  0.92039140  0.87499668  1
  H  H803  1  0.60081765  0.81194764  0.70952846  1
  C  C804  1  0.58362978  0.84636839  0.74631593  1
  C  C805  1  0.66610489  0.88919807  0.72650598  1
  H  H806  1  0.51320918  0.80030644  0.70627050  1
  H  H807  1  0.68229397  0.84604712  0.75601837  1
  H  H808  1  0.71136164  0.65999109  0.72299195  1
  C  C809  1  0.73091639  0.59351442  0.96245711  1
  N  N810  1  0.73320316  0.77345309  0.73649248  1
  C  C811  1  0.71553608  0.51275197  0.62887661  1
  C  C812  1  0.69948063  0.54490980  0.93710950  1
  H  H813  1  0.57964438  0.55044645  0.88918513  1
  H  H814  1  0.64734450  0.93052085  0.75598666  1
  H  H815  1  0.61147678  0.50529055  0.65327330  1
  H  H816  1  0.50758350  0.50796836  0.79847259  1
  H  H817  1  0.54215928  0.81344324  0.53027237  1
  N  N818  1  0.50587148  0.74686392  0.69037468  1
  H  H819  1  0.62717132  0.93092578  0.50816377  1
  C  C820  1  0.50209007  0.78062056  0.98707887  1
  H  H821  1  0.72448698  0.96396772  0.60909820  1
  C  C822  1  0.64622526  0.96698182  0.86226852  1
  H  H823  1  0.50970005  0.58888684  0.73755798  1
  H  H824  1  0.54567830  0.84854884  0.61542328  1
  H  H825  1  0.56129619  0.52482262  0.61981944  1
  Zn  Zn826  1  0.59269093  0.98689766  0.65619821  1
  H  H827  1  0.68883419  0.52821738  0.59623945  1
  N  N828  1  0.71426676  0.52556337  0.69722816  1
  H  H829  1  0.72616339  0.92810305  0.81795699  1
  C  C830  1  0.74420774  0.81599417  0.79170244  1
  H  H831  1  0.50140188  0.52715863  0.57220876  1
  N  N832  1  0.56072626  0.99166113  0.57128726  1
  H  H833  1  0.90272619  0.48072738  0.07715795  1
  H  H834  1  0.92834459  0.20634786  0.15458763  1
  C  C835  1  0.88700809  0.39538680  0.30840110  1
  N  N836  1  0.80297065  0.34116584  0.46760993  1
  C  C837  1  0.86312771  0.17342880  0.42308444  1
  H  H838  1  0.94542213  0.34467198  0.48620939  1
  N  N839  1  0.95261864  0.06476221  0.12715192  1
  H  H840  1  0.88167298  0.32031998  0.17239790  1
  H  H841  1  0.96825418  0.09571940  0.47446563  1
  H  H842  1  0.88038906  0.19921467  0.10368987  1
  H  H843  1  0.85501404  0.37804323  0.31379720  1
  H  H844  1  0.95583539  0.10752483  0.29099941  1
  C  C845  1  0.98134735  0.20644279  0.43503768  1
  H  H846  1  0.90888235  0.25064880  0.39242946  1
  H  H847  1  0.86516566  0.30133299  0.43928369  1
  N  N848  1  0.97595821  0.13106023  0.43204885  1
  C  C849  1  0.98800512  0.12811004  0.28418699  1
  H  H850  1  0.83443701  0.44136282  0.49886718  1
  C  C851  1  0.91398762  0.18711466  0.10489594  1
  H  H852  1  0.96639691  0.38993167  0.08591343  1
  C  C853  1  0.98978077  0.24854135  0.37892342  1
  C  C854  1  0.79835829  0.38143714  0.41322578  1
  H  H855  1  0.97761397  0.44337968  0.16290343  1
  C  C856  1  0.92353967  0.35124113  0.30338300  1
  N  N857  1  0.88548611  0.11156725  0.40117578  1
  H  H858  1  0.92894391  0.22026285  0.06302503  1
  N  N859  1  0.89922916  0.05791857  0.05196803  1
  N  N860  1  0.95532738  0.39696041  0.29685945  1
  C  C861  1  0.94102048  0.46834780  0.30497295  1
  H  H862  1  0.78945113  0.22257783  0.38827861  1
  C  C863  1  0.79040708  0.40838560  0.35174181  1
  C  C864  1  0.89123331  0.36634642  0.13547269  1
  C  C865  1  0.86897215  0.05204404  0.43099367  1
  H  H866  1  0.92586116  0.28737822  0.30245362  1
  H  H867  1  0.77151274  0.37394916  0.31513114  1
  N  N868  1  0.83133027  0.15263360  0.46672458  1
  C  C869  1  0.92391849  0.10444557  0.09275047  1
  N  N870  1  0.89961202  0.46720296  0.31165376  1
  C  C871  1  0.87481349  0.25198705  0.40471967  1
  H  H872  1  0.77128081  0.08372290  0.04135868  1
  C  C873  1  0.91565971  0.46084675  0.47040952  1
  C  C874  1  0.98568573  0.36210973  0.04593418  1
  H  H875  1  0.91064053  0.11400946  0.36914488  1
  C  C876  1  0.77627860  0.02881089  0.01825751  1
  H  H877  1  0.80655472  0.45507302  0.33074404  1
  H  H878  1  0.97931454  0.22942695  0.48586538  1
  H  H879  1  0.90603008  0.42948737  0.20594845  1
  H  H880  1  0.85788201  0.26696452  0.35598091  1
  H  H881  1  0.88552495  0.36422710  0.08099253  1
  N  N882  1  0.90290461  0.42953908  0.15153668  1
  H  H883  1  0.91149211  0.46858783  0.41648652  1
  H  H884  1  0.99554919  0.31038158  0.38225814  1
  H  H885  1  0.97618661  0.10776005  0.38483065  1
  C  C886  1  0.83522831  0.07740124  0.47121706  1
  N  N887  1  0.76084877  0.22031219  0.41316993  1
  C  C888  1  0.99226219  0.21259898  0.30925712  1
  H  H889  1  0.99382843  0.12282547  0.22899651  1
  N  N890  1  0.86178178  0.20619578  0.96457100  1
  N  N891  1  0.94092300  0.43360251  0.84138024  1
  H  H892  1  0.77601443  0.21609617  0.75819105  1
  C  C893  1  0.86818232  0.08526546  0.82602714  1
  N  N894  1  0.89802394  0.15858204  0.63723024  1
  C  C895  1  0.83946073  0.33688094  0.57010375  1
  C  C896  1  0.83043169  0.25236596  0.96891025  1
  C  C897  1  0.89451295  0.33627050  0.77259359  1
  H  H898  1  0.98164201  0.19514190  0.73909856  1
  C  C899  1  0.94698555  0.19790499  0.74158425  1
  Zn  Zn900  1  0.87672538  0.05789423  0.66963356  1
  H  H901  1  0.90108087  0.29662167  0.73050773  1
  H  H902  1  0.85991687  0.35657863  0.60908035  1
  C  C903  1  0.83451471  0.14449312  0.81511766  1
  H  H904  1  0.83267683  0.17674430  0.86560898  1
  C  C905  1  0.91603732  0.00430229  0.79751922  1
  Zn  Zn906  1  0.96959276  0.35438628  0.65041695  1
  H  H907  1  0.77595437  0.08911463  0.63035720  1
  H  H908  1  0.75964487  0.04708183  0.89730538  1
  C  C909  1  0.94027695  0.21385090  0.93341469  1
  H  H910  1  0.80605178  0.32018633  0.85280180  1
  H  H911  1  0.80513155  0.11766927  0.80258219  1
  C  C912  1  0.93052802  0.39670555  0.78212493  1
  C  C913  1  0.96988116  0.48331861  0.83031753  1
  C  C914  1  0.91859883  0.24657006  0.56808105  1
  N  N915  1  0.88597978  0.04498630  0.77331189  1
  C  C916  1  0.75560243  0.47988751  0.79729169  1
  C  C917  1  0.98197979  0.46987422  0.75999001  1
  H  H918  1  0.81857204  0.23132346  0.60840730  1
  H  H919  1  0.84353029  0.18423129  0.77175992  1
  H  H920  1  0.87420265  0.14789816  0.53650855  1
  N  N921  1  0.93469745  0.26093617  0.62789850  1
  C  C922  1  0.84497562  0.32856961  0.96157614  1
  C  C923  1  0.77549087  0.29345643  0.85239864  1
  C  C924  1  0.78391193  0.03045903  0.63372841  1
  H  H925  1  0.88561246  0.30430525  0.81886207  1
  N  N926  1  0.88574056  0.06342275  0.88768199  1
  N  N927  1  0.97574347  0.36333583  0.97986617  1
  Zn  Zn928  1  0.92308513  0.40560401  0.93800024  1
  N  N929  1  0.82038466  0.27362523  0.57481982  1
  H  H930  1  0.82955605  0.38381694  0.96569536  1
  N  N931  1  0.94103995  0.41928627  0.57215561  1
  C  C932  1  0.89206889  0.17973859  0.57413515  1
  H  H933  1  0.93971348  0.15355409  0.91700868  1
  C  C934  1  0.92611249  0.20289674  0.67136566  1
  N  N935  1  0.76995256  0.45439999  0.67294894  1
  H  H936  1  0.76119554  0.44317357  0.56803398  1
  H  H937  1  0.81350460  0.04324580  0.50300953  1
  H  H938  1  0.91872022  0.28682848  0.52460758  1
  C  C939  1  0.75995758  0.24065501  0.80364848  1
  H  H940  1  0.95608697  0.24318796  0.89128321  1
  C  C941  1  0.93727896  0.40280087  0.50499216  1
  N  N942  1  0.95917321  0.41270134  0.73530102  1
  H  H943  1  0.77291460  0.29760183  0.66948020  1
  H  H944  1  0.93916901  0.24872017  0.77390774  1
  H  H945  1  0.86656080  0.36624175  0.75740870  1
  N  N946  1  0.88419344  0.31868653  0.94524026  1
  C  C947  1  0.89616429  0.24557085  0.94919024  1
  C  C948  1  0.82647958  0.38055319  0.51048540  1
  C  C949  1  0.75065439  0.46871612  0.61416183  1
  C  C950  1  0.91915617  0.48601580  0.57874748  1
  H  H951  1  0.85566779  0.47647650  0.83487957  1
  H  H952  1  0.79008250  0.49034312  0.79908803  1
  H  H953  1  0.93695192  0.14664626  0.77229672  1
  C  C954  1  0.91494971  0.01494599  0.87193698  1
  H  H955  1  0.95921283  0.21783567  0.97965849  1
  N  N956  1  0.81081198  0.01775838  0.98365233  1
  Zn  Zn957  1  0.86206928  0.08984792  0.98035253  1
  H  H958  1  0.75647420  0.07556245  0.80543405  1
  N  N959  1  0.89143264  0.49162927  0.96914470  1
  H  H960  1  0.98128274  0.10435183  0.67273695  1
  C  C961  1  0.98673183  0.04332527  0.66972316  1
  H  H962  1  0.98288912  0.01839803  0.72059811  1
  N  N963  1  0.82008694  0.00389959  0.64931640  1
  C  C964  1  0.96269704  0.00548310  0.61213705  1
  N  N965  1  0.91898570  0.00667269  0.60720996  1
  H  H966  1  0.89146789  0.48818849  0.68229097  1
  H  H967  1  0.79873774  0.23304158  0.97993357  1
  Zn  Zn968  1  0.78367743  0.23390421  0.50223349  1
  N  N969  1  0.96427621  0.63632958  0.16612234  1
  N  N970  1  0.80974366  0.68428256  0.33222331  1
  C  C971  1  0.78859667  0.60632811  0.43740235  1
  C  C972  1  0.91325658  0.98907395  0.06082298  1
  H  H973  1  0.96064088  0.78351154  0.47516272  1
  C  C974  1  0.81852070  0.58852499  0.18250789  1
  C  C975  1  0.94930973  0.63089872  0.10342517  1
  N  N976  1  0.78608721  0.63606247  0.17921193  1
  H  H977  1  0.85450503  0.61695279  0.08086811  1
  H  H978  1  0.92255082  0.86466562  0.38931792  1
  H  H979  1  0.87387534  0.70630034  0.19201387  1
  H  H980  1  0.99902200  0.54086543  0.31454302  1
  H  H981  1  0.95310497  0.58728062  0.33255251  1
  C  C982  1  0.98697702  0.72852808  0.37641434  1
  C  C983  1  0.87603596  0.79392021  0.04148230  1
  C  C984  1  0.84208232  0.72702318  0.31592225  1
  H  H985  1  0.90819472  0.73238297  0.36047715  1
  C  C986  1  0.83096961  0.80769164  0.03265707  1
  H  H987  1  0.90234162  0.84851450  0.24715278  1
  C  C988  1  0.85792581  0.58200606  0.22359822  1
  C  C989  1  0.95410179  0.80435981  0.30937669  1
  H  H990  1  0.96596511  0.56148028  0.24486218  1
  N  N991  1  0.94384897  0.82350827  0.37641978  1
  N  N992  1  0.86043889  0.66386522  0.40674010  1
  C  C993  1  0.92363892  0.62914946  0.16034132  1
  H  H994  1  0.79915684  0.54645456  0.44511409  1
  H  H995  1  0.83498103  0.77030127  0.45372210  1
  C  C996  1  0.96590843  0.54228849  0.29792061  1
  H  H997  1  0.84035340  0.76583707  0.27148435  1
  H  H998  1  0.81589396  0.86335835  0.04476472  1
  H  H999  1  0.88340655  0.99744103  0.42565508  1
  C  C1000  1  0.81970803  0.64902491  0.39104439  1
  C  C1001  1  0.91292937  0.79315611  0.04544542  1
  H  H1002  1  0.77298875  0.72368504  0.11026847  1
  C  C1003  1  0.93592114  0.84086509  0.24406512  1
  C  C1004  1  0.87520344  0.71365959  0.36240057  1
  H  H1005  1  0.89918221  0.66708180  0.25816374  1
  H  H1006  1  0.87311257  0.52762498  0.21574437  1
  H  H1007  1  0.94961992  0.89805458  0.23170581  1
  C  C1008  1  0.88723155  0.65102950  0.20489489  1
  C  C1009  1  0.86508394  0.58204683  0.03500898  1
  H  H1010  1  0.94655755  0.78808800  0.05322149  1
  N  N1011  1  0.97950142  0.74413413  0.30949716  1
  H  H1012  1  0.90027424  0.94586624  0.02488325  1
  H  H1013  1  0.94970857  0.66204429  0.05400857  1
  C  C1014  1  0.78130105  0.56846005  0.15516500  1
  H  H1015  1  0.94243665  0.80391298  0.19924705  1
  C  C1016  1  0.96460150  0.77969263  0.41857241  1
  H  H1017  1  0.85269224  0.58756393  0.27883192  1
  H  H1018  1  0.97190481  0.94922650  0.11399804  1
  H  H1019  1  0.98333921  0.58666712  0.45490158  1
  C  C1020  1  0.88869042  0.51294236  0.03478667  1
  H  H1021  1  0.76082996  0.51891569  0.16567031  1
  H  H1022  1  0.95232992  0.93280988  0.46145764  1
  C  C1023  1  0.94877878  0.99342322  0.10548268  1
  H  H1024  1  0.75896766  0.82179448  0.11161807  1
  H  H1025  1  0.78889178  0.63358949  0.49015728  1
  C  C1026  1  0.75040437  0.96345276  0.01193002  1
  H  H1027  1  0.75550166  0.60814855  0.41549219  1
  Zn  Zn1028  1  0.88955718  0.62272740  0.49136861  1
  H  H1029  1  0.99018254  0.87009204  0.01698523  1
  H  H1030  1  0.98536771  0.51748130  0.86908561  1
  H  H1031  1  0.84129178  0.84980908  0.91207563  1
  H  H1032  1  0.76809023  0.62713862  0.66814125  1
  C  C1033  1  0.75895019  0.96606773  0.61852877  1
  N  N1034  1  0.79102280  0.71545447  0.60205677  1
  H  H1035  1  0.78822380  0.66096803  0.77509889  1
  Zn  Zn1036  1  0.75312081  0.81199109  0.94711376  1
  H  H1037  1  0.75286490  0.91959697  0.73736206  1
  H  H1038  1  0.78024919  0.92117837  0.81623108  1
  C  C1039  1  0.78957550  0.64720669  0.62917475  1
  C  C1040  1  0.81936643  0.68139629  0.78396569  1
  C  C1041  1  0.86756210  0.53029273  0.84863556  1
  N  N1042  1  0.76800169  0.59961475  0.93279114  1
  C  C1043  1  0.85086317  0.69158803  0.73313320  1
  C  C1044  1  0.82194931  0.71954049  0.55660193  1
  N  N1045  1  0.80823015  0.77245250  0.98822731  1
  C  C1046  1  0.75219588  0.90210215  0.79165898  1
  C  C1047  1  0.91062676  0.96700868  0.55124399  1
  N  N1048  1  0.77177056  0.91954981  0.97120141  1
  C  C1049  1  0.97914412  0.65506000  0.54781480  1
  C  C1050  1  0.80947644  0.94830012  0.95412784  1
  Zn  Zn1051  1  0.75326195  0.79937475  0.63716232  1
  H  H1052  1  0.88166510  0.89449248  0.69359282  1
  C  C1053  1  0.83391791  0.78847878  0.51017796  1
  Zn  Zn1054  1  0.81415817  0.66982615  0.94236891  1
  H  H1055  1  0.81173258  0.83595165  0.51768293  1
  N  N1056  1  0.97917419  0.98016063  0.55248880  1
  C  C1057  1  0.94814336  0.95452147  0.51431098  1
  H  H1058  1  0.93628002  0.74020074  0.88719719  1
  H  H1059  1  0.87544959  0.92052305  0.94681119  1
  H  H1060  1  0.85210967  0.93886830  0.86801015  1
  N  N1061  1  0.85567578  0.59291352  0.96982374  1
  N  N1062  1  0.78065562  0.90465032  0.63385440  1
  C  C1063  1  0.90936934  0.52603882  0.64690643  1
  N  N1064  1  0.90626129  0.51238007  0.51687318  1
  N  N1065  1  0.93925037  0.67810853  0.53984582  1
  H  H1066  1  0.99458993  0.66860865  0.73403146  1
  H  H1067  1  0.84897037  0.68311191  0.67542076  1
  H  H1068  1  0.99467727  0.93966339  0.95080332  1
  H  H1069  1  0.86117007  0.83532294  0.62677165  1
  H  H1070  1  0.91423806  0.70489902  0.73812211  1
  C  C1071  1  0.82087659  0.60435555  0.59244918  1
  H  H1072  1  0.84711294  0.57171086  0.81988291  1
  N  N1073  1  0.99748658  0.69403719  0.60108928  1
  H  H1074  1  0.87901526  0.95251178  0.53984036  1
  H  H1075  1  0.89902824  0.53249596  0.82602219  1
  C  C1076  1  0.81894797  0.92711158  0.65297893  1
  C  C1077  1  0.87178863  0.54009992  0.92615118  1
  N  N1078  1  0.84143378  0.65033353  0.55303502  1
  H  H1079  1  0.95369971  0.87033736  0.94603640  1
  H  H1080  1  0.84047446  0.82941646  0.71405824  1
  N  N1081  1  0.88570340  0.70668461  0.76562927  1
  H  H1082  1  0.78359420  0.56504662  0.89927343  1
  C  C1083  1  0.97149160  0.74349700  0.62644938  1
  N  N1084  1  0.83685769  0.69355924  0.84528952  1
  H  H1085  1  0.90034100  0.69256778  0.94270985  1
  H  H1086  1  0.98277140  0.78218739  0.66615132  1
  H  H1087  1  0.90524819  0.76434844  0.59176336  1
  H  H1088  1  0.82885601  0.54460355  0.59605727  1
  C  C1089  1  0.93599570  0.73660312  0.58431006  1
  C  C1090  1  0.87756643  0.70771014  0.83540208  1
  C  C1091  1  0.90280940  0.73095209  0.89920844  1
  H  H1092  1  0.93598279  0.97848308  0.76095253  1
  H  H1093  1  0.89200253  0.78425218  0.92101560  1
  C  C1094  1  0.84676634  0.91224211  0.91848606  1
  C  C1095  1  0.85240704  0.86888540  0.67248745  1
  H  H1096  1  0.93905029  0.54381689  0.67026862  1
  C  C1097  1  0.98685149  0.87795812  0.95941336  1
  H  H1098  1  0.97613375  0.58893923  0.78342379  1
  H  H1099  1  0.88955280  0.57623706  0.64074513  1
  H  H1100  1  0.93182684  0.98674753  0.91374629  1
  C  C1101  1  0.99667398  0.58726211  0.50832977  1
  H  H1102  1  0.86523624  0.81049536  0.51598862  1
  H  H1103  1  0.98770580  0.53391729  0.53061537  1
