# generated using pymatgen
data_ZnH28(C11O3)3
_symmetry_space_group_name_H-M   'P 1'
_cell_length_a   20.51486680
_cell_length_b   21.40803186
_cell_length_c   28.46228876
_cell_angle_alpha   90.00000000
_cell_angle_beta   90.00000000
_cell_angle_gamma   90.00000000
_symmetry_Int_Tables_number   1
_chemical_formula_structural   ZnH28(C11O3)3
_chemical_formula_sum   'Zn16 H448 C528 O144'
_cell_volume   12500.15114564
_cell_formula_units_Z   16
loop_
 _symmetry_equiv_pos_site_id
 _symmetry_equiv_pos_as_xyz
  1  'x, y, z'
loop_
 _atom_site_type_symbol
 _atom_site_label
 _atom_site_symmetry_multiplicity
 _atom_site_fract_x
 _atom_site_fract_y
 _atom_site_fract_z
 _atom_site_occupancy
  H  H0  1  0.09236260  0.16924826  0.18041787  1
  C  C1  1  0.04423087  0.16110443  0.19802166  1
  C  C2  1  0.17323235  0.05003728  0.11688076  1
  O  O3  1  0.11577110  0.03746987  0.10788944  1
  H  H4  1  0.03785039  0.06047380  0.14914009  1
  H  H5  1  0.12406222  0.09078502  0.19150051  1
  H  H6  1  0.12143477  0.22424055  0.12414852  1
  H  H7  1  0.18513402  0.20974261  0.13853352  1
  O  O8  1  0.14946349  0.23190321  0.15004768  1
  C  C9  1  0.05671064  0.03348277  0.11840616  1
  C  C10  1  0.03709035  0.14455402  0.24482274  1
  H  H11  1  0.11944124  0.21035430  0.24752106  1
  H  H12  1  0.17591255  0.29000500  0.06259744  1
  H  H13  1  0.21606109  0.27617640  0.20330646  1
  C  C14  1  0.00359194  0.01244973  0.08326612  1
  C  C15  1  0.24675157  0.27939894  0.23509201  1
  C  C16  1  0.21372999  0.04926270  0.06996525  1
  O  O17  1  0.12672932  0.20632804  0.00742871  1
  C  C18  1  0.18123813  0.18567104  0.00688350  1
  C  C19  1  0.21151194  0.08459891  0.15118666  1
  C  C20  1  0.17451806  0.07634638  0.19716168  1
  H  H21  1  0.17009683  0.02515474  0.20273089  1
  H  H22  1  0.24382494  0.09236169  0.06517995  1
  H  H23  1  0.19822177  0.09841781  0.22615843  1
  C  C24  1  0.22280982  0.26731798  0.06501552  1
  H  H25  1  0.17549142  0.04749233  0.03986464  1
  H  H26  1  0.24934784  0.42558709  0.00873079  1
  H  H27  1  0.18458809  0.48775532  0.04210828  1
  C  C28  1  0.23473648  0.21394224  0.04058933  1
  H  H29  1  0.24622212  0.00691098  0.06850515  1
  H  H30  1  0.00298678  0.07112440  0.42686095  1
  C  C31  1  0.24754984  0.23169830  0.39503394  1
  H  H32  1  0.24896370  0.27636973  0.41789610  1
  C  C33  1  0.03646477  0.45575994  0.46301159  1
  H  H34  1  0.22287851  0.31530938  0.26005801  1
  H  H35  1  0.06721104  0.30688998  0.45759752  1
  C  C36  1  0.05065166  0.29526590  0.49181520  1
  H  H37  1  0.04770265  0.47634977  0.34249696  1
  C  C38  1  0.02697768  0.47484491  0.41709087  1
  C  C39  1  0.06447075  0.00828402  0.26354479  1
  H  H40  1  0.02681640  0.34174215  0.38365115  1
  C  C41  1  0.08608135  0.41212936  0.46849576  1
  C  C42  1  0.20942337  0.17311409  0.28022662  1
  H  H43  1  0.24983711  0.11421969  0.41110939  1
  C  C44  1  0.02273940  0.30301821  0.35637054  1
  H  H45  1  0.03984450  0.32537652  0.32265806  1
  C  C46  1  0.17624084  0.21348663  0.38841398  1
  C  C47  1  0.06524975  0.24757089  0.36988617  1
  H  H48  1  0.18268840  0.05775861  0.42812788  1
  C  C49  1  0.14318135  0.17295872  0.27026046  1
  C  C50  1  0.07732546  0.13745159  0.40347001  1
  O  O51  1  0.09004896  0.13893067  0.27867364  1
  H  H52  1  0.05943008  0.04922481  0.28630667  1
  H  H53  1  0.09410402  0.04995265  0.43615138  1
  H  H54  1  0.18165900  0.30918627  0.31289921  1
  C  C55  1  0.19716372  0.10492933  0.41199010  1
  C  C56  1  0.19405322  0.06170132  0.31305764  1
  H  H57  1  0.04546538  0.17794016  0.47590475  1
  H  H58  1  0.21159876  0.03180092  0.34442692  1
  C  C59  1  0.10760867  0.41029797  0.38024691  1
  H  H60  1  0.21375445  0.33049084  0.36904338  1
  H  H61  1  0.15975217  0.20635657  0.47035104  1
  H  H62  1  0.14560724  0.08019788  0.32435875  1
  C  C63  1  0.03842404  0.19381485  0.39200047  1
  C  C64  1  0.05615337  0.08328130  0.42370746  1
  C  C65  1  0.23706580  0.11783163  0.30507578  1
  H  H66  1  0.16032803  0.36490507  0.43701686  1
  C  C67  1  0.11889913  0.39410093  0.42785457  1
  C  C68  1  0.16822383  0.31879459  0.34916847  1
  C  C69  1  0.05614361  0.45472787  0.37693450  1
  C  C70  1  0.15314210  0.15134867  0.40238124  1
  O  O71  1  0.13689826  0.38546534  0.34270622  1
  C  C72  1  0.13473498  0.26005639  0.37021557  1
  C  C73  1  0.08013427  0.15117473  0.49743273  1
  C  C74  1  0.14678611  0.16503564  0.49196243  1
  O  O75  1  0.23014870  0.33604359  0.49750175  1
  C  C76  1  0.12302617  0.03477615  0.70323406  1
  C  C77  1  0.09082281  0.07600958  0.67483936  1
  C  C78  1  0.09103572  0.16816663  0.62472299  1
  O  O79  1  0.10981410  0.21706069  0.60521830  1
  C  C80  1  0.10683651  0.06306953  0.55108340  1
  C  C81  1  0.12402204  0.12861414  0.65512372  1
  C  C82  1  0.03801946  0.40811592  0.70424610  1
  O  O83  1  0.07715681  0.45492094  0.70856807  1
  C  C84  1  0.19297588  0.04028632  0.71117869  1
  C  C85  1  0.17249064  0.07912265  0.54629752  1
  C  C86  1  0.19303753  0.13539931  0.66117258  1
  C  C87  1  0.22435892  0.09382643  0.69077104  1
  C  C88  1  0.23237792  0.18632678  0.63681327  1
  H  H89  1  0.21189168  0.05215425  0.56361126  1
  H  H90  1  0.09225841  0.01947224  0.57137439  1
  H  H91  1  0.19599081  0.46179213  0.61727736  1
  C  C92  1  0.05599244  0.34621252  0.69156617  1
  C  C93  1  0.06240111  0.24407034  0.56963580  1
  C  C94  1  0.08532789  0.26873694  0.52801979  1
  H  H95  1  0.13930672  0.26688017  0.52401472  1
  C  C96  1  0.05944173  0.10133893  0.52925259  1
  C  C97  1  0.19232342  0.12926119  0.51945686  1
  C  C98  1  0.15554366  0.43898230  0.69890098  1
  H  H99  1  0.15389014  0.42094817  0.66198641  1
  H  H100  1  0.02934796  0.24976332  0.67437839  1
  H  H101  1  0.10871956  0.33750389  0.68423395  1
  H  H102  1  0.04086496  0.15611694  0.61496262  1
  H  H103  1  0.15458137  0.22918937  0.71029938  1
  H  H104  1  0.14653075  0.39904878  0.72586125  1
  C  C105  1  0.01431403  0.29734917  0.68644955  1
  C  C106  1  0.21512370  0.47723053  0.70945617  1
  C  C107  1  0.01830897  0.05690025  0.66687561  1
  H  H108  1  0.09908534  0.39952341  0.50473203  1
  H  H109  1  0.01110563  0.02772078  0.63418498  1
  C  C110  1  0.19077805  0.22182605  0.73808800  1
  C  C111  1  0.24462316  0.26502827  0.74054853  1
  H  H112  1  0.23676004  0.17796925  0.59848037  1
  H  H113  1  0.20832225  0.23380584  0.64177211  1
  O  O114  1  0.01080153  0.46453930  0.54807271  1
  H  H115  1  0.00193976  0.10926357  0.74047432  1
  C  C116  1  0.24253624  0.48507775  0.62409789  1
  O  O117  1  0.24885182  0.31659819  0.71466990  1
  C  C118  1  0.24910581  0.38674008  0.50370552  1
  H  H119  1  0.17682741  0.49123261  0.50298605  1
  H  H120  1  0.21770388  0.49504445  0.96302395  1
  C  C121  1  0.23539532  0.49481411  0.75478697  1
  C  C122  1  0.21207461  0.00088200  0.89378750  1
  H  H123  1  0.18770936  0.36442650  0.84916405  1
  C  C124  1  0.04810529  0.00769720  0.82999664  1
  C  C125  1  0.19415524  0.47549778  0.79829772  1
  Zn  Zn126  1  0.11409682  0.11899977  0.93671764  1
  H  H127  1  0.08402860  0.40817509  0.92157712  1
  H  H128  1  0.02760571  0.18584224  0.79530987  1
  H  H129  1  0.22003420  0.30446204  0.98614044  1
  C  C130  1  0.22216838  0.33680638  0.82595636  1
  C  C131  1  0.01292757  0.47738282  0.84680322  1
  O  O132  1  0.08184623  0.22925701  0.88129584  1
  C  C133  1  0.02188384  0.41074953  0.85604655  1
  C  C134  1  0.06393964  0.11719623  0.85100423  1
  C  C135  1  0.03770403  0.13579156  0.80578329  1
  H  H136  1  0.15298732  0.44551764  0.78513785  1
  H  H137  1  0.22220203  0.44423752  0.82407711  1
  O  O138  1  0.19463224  0.13946637  0.98155542  1
  C  C139  1  0.02097159  0.09325776  0.77436384  1
  C  C140  1  0.07760870  0.38191901  0.88665324  1
  H  H141  1  0.12652924  0.38764891  0.87084595  1
  H  H142  1  0.24490924  0.34091434  0.90710113  1
  H  H143  1  0.22750128  0.28590826  0.83833538  1
  H  H144  1  0.14032479  0.14528821  0.75860291  1
  H  H145  1  0.18443139  0.04434870  0.89360691  1
  O  O146  1  0.21533828  0.10848796  0.83323504  1
  O  O147  1  0.20286985  0.34611345  0.98543482  1
  C  C148  1  0.07924370  0.17437257  0.87985719  1
  O  O149  1  0.11329565  0.01287170  0.96971455  1
  C  C150  1  0.18393364  0.17159048  0.76574462  1
  C  C151  1  0.01931783  0.02630874  0.78634804  1
  H  H152  1  0.17445220  0.09055249  0.81964392  1
  H  H153  1  0.20089162  0.33905750  0.78883319  1
  C  C154  1  0.22518187  0.15695932  0.80358301  1
  H  H155  1  0.08469887  0.03354407  0.89747372  1
  H  H156  1  0.07172106  0.33065595  0.89481147  1
  C  C157  1  0.07134439  0.05029420  0.86179282  1
  H  H158  1  0.07699066  0.87299128  0.17365533  1
  C  C159  1  0.07171433  0.91099969  0.19924541  1
  C  C160  1  0.12623102  0.93175891  0.22516445  1
  H  H161  1  0.07371789  0.63901921  0.06033258  1
  H  H162  1  0.17749623  0.91712594  0.21704110  1
  H  H163  1  0.13379251  0.94066164  0.11230908  1
  C  C164  1  0.06362946  0.67121896  0.03095016  1
  C  C165  1  0.03151008  0.73022534  0.03451035  1
  H  H166  1  0.01500320  0.66623468  0.23371978  1
  H  H167  1  0.07734367  0.95434598  0.04122848  1
  C  C168  1  0.02489263  0.97281922  0.04559918  1
  C  C169  1  0.00644686  0.99464140  0.24080697  1
  O  O170  1  0.01893671  0.72779725  0.11839140  1
  C  C171  1  0.05897533  0.51392556  0.08067972  1
  H  H172  1  0.23122343  0.83138476  0.14610078  1
  O  O173  1  0.20144788  0.85615910  0.16313038  1
  H  H174  1  0.19989933  0.83277061  0.19337812  1
  C  C175  1  0.07936284  0.50908814  0.03132241  1
  C  C176  1  0.14497592  0.50061243  0.01693000  1
  O  O177  1  0.15984125  0.93586817  0.00747323  1
  C  C178  1  0.01252475  0.75561535  0.08091625  1
  C  C179  1  0.01091638  0.94717194  0.20568524  1
  C  C180  1  0.12381062  0.98952243  0.12819754  1
  O  O181  1  0.09365643  0.50289543  0.11267214  1
  H  H182  1  0.23618456  0.66546863  0.25431777  1
  O  O183  1  0.00896576  0.84016672  0.47260609  1
  O  O184  1  0.18859201  0.99922643  0.28275643  1
  H  H185  1  0.13411304  0.89465229  0.31059208  1
  C  C186  1  0.09679880  0.88516252  0.39432609  1
  C  C187  1  0.02078898  0.65228502  0.27036770  1
  C  C188  1  0.22048217  0.78997294  0.27536988  1
  O  O189  1  0.12025395  0.70737601  0.26815887  1
  C  C190  1  0.14222007  0.68180281  0.49653886  1
  H  H191  1  0.14204260  0.76139227  0.32187119  1
  C  C192  1  0.08074968  0.65897267  0.34341979  1
  C  C193  1  0.24164388  0.66035987  0.39049121  1
  C  C194  1  0.00227922  0.83250086  0.33684846  1
  C  C195  1  0.22401044  0.85485078  0.28373570  1
  C  C196  1  0.16030921  0.58565738  0.43205458  1
  C  C197  1  0.04120909  0.79564253  0.36824243  1
  C  C198  1  0.18324073  0.69162101  0.45989423  1
  C  C199  1  0.03758281  0.61811162  0.36552600  1
  C  C200  1  0.18218697  0.88153198  0.32347241  1
  H  H201  1  0.03655895  0.74429785  0.36717112  1
  O  O202  1  0.17779524  0.87307196  0.45456217  1
  O  O203  1  0.16556434  0.96587003  0.42156625  1
  H  H204  1  0.17233250  0.84955280  0.35357250  1
  H  H205  1  0.12040901  0.67681335  0.36664003  1
  H  H206  1  0.06502838  0.97749252  0.36424283  1
  H  H207  1  0.04816077  0.60105414  0.40052018  1
  C  C208  1  0.19481317  0.64305172  0.42754779  1
  C  C209  1  0.07626360  0.67537358  0.29596022  1
  C  C210  1  0.17431332  0.73773420  0.29457480  1
  C  C211  1  0.12186092  0.57807995  0.47038752  1
  H  H212  1  0.20056427  0.92693742  0.34041238  1
  C  C213  1  0.09054541  0.82087626  0.39537923  1
  H  H214  1  0.20508889  0.70012997  0.30895240  1
  C  C215  1  0.15126260  0.91044728  0.42570932  1
  C  C216  1  0.00928656  0.89896884  0.33726979  1
  H  H217  1  0.09641045  0.53444134  0.47520448  1
  H  H218  1  0.12368067  0.79006932  0.41750186  1
  H  H219  1  0.16984893  0.54890939  0.40496560  1
  C  C220  1  0.05888787  0.92463403  0.36468294  1
  H  H221  1  0.21031206  0.73592351  0.45459101  1
  C  C222  1  0.12460163  0.97714775  0.25882818  1
  C  C223  1  0.06780096  0.62232456  0.66313434  1
  C  C224  1  0.04927134  0.66827261  0.62790614  1
  C  C225  1  0.07492121  0.66484431  0.57875028  1
  C  C226  1  0.10309672  0.56294460  0.64748590  1
  O  O227  1  0.16126880  0.81165314  0.64116348  1
  H  H228  1  0.12954662  0.66941288  0.57808884  1
  O  O229  1  0.07112441  0.61203206  0.54173312  1
  C  C230  1  0.18063752  0.83256578  0.59807548  1
  C  C231  1  0.03798240  0.91928377  0.63986516  1
  H  H232  1  0.18382686  0.79134369  0.71783496  1
  H  H233  1  0.08884598  0.91199134  0.64963147  1
  C  C234  1  0.05840232  0.63172642  0.71183825  1
  O  O235  1  0.15804012  0.80440561  0.56319437  1
  C  C236  1  0.22742750  0.75855459  0.72931439  1
  H  H237  1  0.12582444  0.56788148  0.61281146  1
  H  H238  1  0.07080787  0.52021666  0.64475186  1
  H  H239  1  0.14432602  0.55113214  0.67045490  1
  H  H240  1  0.13907117  0.77101757  0.63265258  1
  H  H241  1  0.22596372  0.90240403  0.66691025  1
  C  C242  1  0.22132824  0.88733855  0.59290878  1
  O  O243  1  0.06986571  0.92697138  0.55812664  1
  H  H244  1  0.20842100  0.71138029  0.73689681  1
  H  H245  1  0.13207008  0.72162042  0.52211233  1
  Zn  Zn246  1  0.09516801  0.85734033  0.51089528  1
  H  H247  1  0.12768195  0.55844252  0.73632155  1
  C  C248  1  0.24220574  0.92141198  0.63189441  1
  C  C249  1  0.23595650  0.64303779  0.66665147  1
  C  C250  1  0.08568309  0.58757022  0.74880130  1
  H  H251  1  0.22130271  0.89236564  0.51484374  1
  H  H252  1  0.20851101  0.59610895  0.53201165  1
  H  H253  1  0.19598089  0.64026280  0.63985017  1
  H  H254  1  0.04960814  0.70393467  0.55913499  1
  C  C255  1  0.11128015  0.62380006  0.50524791  1
  H  H256  1  0.11281251  0.80737831  0.73411212  1
  C  C257  1  0.02424366  0.68830248  0.72649301  1
  O  O258  1  0.01378571  0.75346686  0.51060162  1
  C  C259  1  0.02732836  0.92560336  0.59050422  1
  H  H260  1  0.21264278  0.64492705  0.70201260  1
  C  C261  1  0.23839381  0.91284279  0.54727812  1
  C  C262  1  0.22848866  0.99769512  0.74044798  1
  H  H263  1  0.02271555  0.79333810  0.58964830  1
  C  C264  1  0.00907277  0.71865552  0.64547761  1
  H  H265  1  0.09659449  0.99728455  0.71990055  1
  H  H266  1  0.17139761  0.91018241  0.73107415  1
  C  C267  1  0.24593630  0.56099910  0.52653727  1
  C  C268  1  0.22500193  0.50058042  0.51248881  1
  C  C269  1  0.02361793  0.77009169  0.99588780  1
  C  C270  1  0.11752712  0.50665616  0.93463685  1
  C  C271  1  0.24477408  0.90683151  0.93321225  1
  H  H272  1  0.18323225  0.66402959  0.83248588  1
  H  H273  1  0.00054257  0.93285925  0.97914102  1
  H  H274  1  0.01911300  0.85292059  0.76671599  1
  H  H275  1  0.04691105  0.55267800  0.75731505  1
  O  O276  1  0.12922930  0.50767234  0.88890329  1
  H  H277  1  0.17775703  0.51769164  0.81752514  1
  C  C278  1  0.05169660  0.51269233  0.95049707  1
  C  C279  1  0.16632953  0.50192554  0.97133009  1
  H  H280  1  0.18342734  0.59358210  0.93007628  1
  C  C281  1  0.19269736  0.94056160  0.76010374  1
  H  H282  1  0.14880201  0.95503841  0.78043182  1
  H  H283  1  0.10985098  0.88446061  0.89916635  1
  O  O284  1  0.07891844  0.65991662  0.90162766  1
  C  C285  1  0.23719897  0.60267174  0.92981039  1
  C  C286  1  0.04190884  0.74540684  0.95116875  1
  C  C287  1  0.24858543  0.63945417  0.96837278  1
  H  H288  1  0.09554727  0.53514154  0.82562075  1
  C  C289  1  0.16340556  0.63065600  0.80552438  1
  H  H290  1  0.24060643  0.87541294  0.96372833  1
  C  C291  1  0.15551554  0.96876391  0.97160519  1
  H  H292  1  0.20809847  0.64797040  0.99438854  1
  H  H293  1  0.08269125  0.74724808  0.86433862  1
  C  C294  1  0.16733213  0.83805636  0.84557501  1
  C  C295  1  0.05921023  0.84467126  0.78915340  1
  C  C296  1  0.17634268  0.81463511  0.79986890  1
  C  C297  1  0.10295958  0.63517351  0.79035284  1
  H  H298  1  0.05030225  0.56690262  0.87207174  1
  C  C299  1  0.11746714  0.82169015  0.77283400  1
  O  O300  1  0.23006561  0.79024319  0.78015945  1
  H  H301  1  0.04821153  0.95815325  0.84255223  1
  C  C302  1  0.07762405  0.65157406  0.98632700  1
  C  C303  1  0.20674608  0.95868798  0.93086375  1
  H  H304  1  0.21146557  0.83646286  0.87086515  1
  H  H305  1  0.09667981  0.60563484  0.98020750  1
  H  H306  1  0.03962261  0.77702332  0.92133741  1
  C  C307  1  0.05451139  0.68318414  0.80861536  1
  C  C308  1  0.05400033  0.85853114  0.83690602  1
  C  C309  1  0.06701949  0.52219213  0.85719609  1
  C  C310  1  0.11065133  0.86134419  0.86418133  1
  C  C311  1  0.06592015  0.68530747  0.94442467  1
  H  H312  1  0.20291855  0.60255478  0.78850033  1
  H  H313  1  0.22395482  0.91311156  0.78391938  1
  C  C314  1  0.05309886  0.70386413  0.85963649  1
  H  H315  1  0.01387305  0.51442712  0.92483795  1
  C  C316  1  0.00846976  0.70149904  0.77613638  1
  H  H317  1  0.00268898  0.71100863  0.87504986  1
  C  C318  1  0.03071253  0.51327380  0.99540542  1
  C  C319  1  0.29891843  0.15107587  0.17688392  1
  C  C320  1  0.35338619  0.14048333  0.20352056  1
  C  C321  1  0.39245924  0.08254448  0.19436603  1
  O  O322  1  0.38421446  0.29022867  0.12684755  1
  H  H323  1  0.37150744  0.08270095  0.11634733  1
  C  C324  1  0.39786769  0.06124912  0.14672736  1
  C  C325  1  0.27013779  0.29341598  0.09629431  1
  C  C326  1  0.42499740  0.05219166  0.23273095  1
  H  H327  1  0.37283547  0.17362596  0.22922472  1
  C  C328  1  0.33170780  0.26593371  0.10160934  1
  H  H329  1  0.36112177  0.30264299  0.15547107  1
  C  C330  1  0.34187737  0.20814287  0.07614210  1
  H  H331  1  0.38855828  0.18487068  0.07774067  1
  C  C332  1  0.29468305  0.18413229  0.04603257  1
  H  H333  1  0.44610713  0.38416734  0.04339085  1
  H  H334  1  0.25254363  0.33255972  0.11786567  1
  O  O335  1  0.26072660  0.11453637  0.13918214  1
  H  H336  1  0.28686050  0.35436676  0.02212980  1
  H  H337  1  0.26293386  0.19272489  0.17633290  1
  H  H338  1  0.46884603  0.24903403  0.18015660  1
  O  O339  1  0.32180861  0.30691917  0.22739101  1
  H  H340  1  0.44752369  0.48172920  0.18234126  1
  H  H341  1  0.33871936  0.46359846  0.02038383  1
  C  C342  1  0.30517005  0.45112206  0.11814015  1
  O  O343  1  0.33369245  0.46573024  0.15182502  1
  O  O344  1  0.27392992  0.43689614  0.08573836  1
  H  H345  1  0.30434427  0.14367549  0.02272594  1
  H  H346  1  0.38133948  0.33505259  0.00464965  1
  C  C347  1  0.48158981  0.34366274  0.04813310  1
  H  H348  1  0.45379006  0.30630301  0.06688658  1
  O  O349  1  0.47557591  0.39675989  0.24444761  1
  C  C350  1  0.49750878  0.48640494  0.19570831  1
  C  C351  1  0.47165901  0.00646402  0.22091627  1
  C  C352  1  0.43523227  0.00769717  0.13656724  1
  C  C353  1  0.41172647  0.16715962  0.31140814  1
  C  C354  1  0.35662990  0.35136348  0.33759135  1
  C  C355  1  0.25339019  0.22135085  0.26358528  1
  C  C356  1  0.37856476  0.29701239  0.36022355  1
  H  H357  1  0.36563265  0.03775533  0.31709448  1
  C  C358  1  0.32133345  0.22182443  0.27237495  1
  O  O359  1  0.43565392  0.23707385  0.47807133  1
  C  C360  1  0.34723352  0.16885430  0.30049449  1
  C  C361  1  0.38867549  0.29552668  0.40833040  1
  O  O362  1  0.31136177  0.00835089  0.37080545  1
  H  H363  1  0.32578928  0.49195867  0.37065685  1
  C  C364  1  0.35607505  0.27108146  0.25009484  1
  H  H365  1  0.40874491  0.27395720  0.25180176  1
  H  H366  1  0.34346776  0.34929912  0.30021004  1
  H  H367  1  0.38625454  0.25095065  0.34090274  1
  C  C368  1  0.30364144  0.11761391  0.31739472  1
  H  H369  1  0.32593415  0.43413837  0.43673363  1
  C  C370  1  0.36650945  0.34711846  0.43819245  1
  H  H371  1  0.41295426  0.06623322  0.26802416  1
  H  H372  1  0.27542571  0.23968758  0.36101644  1
  O  O373  1  0.40909533  0.18136880  0.41149225  1
  C  C374  1  0.34542326  0.39812386  0.41437948  1
  H  H375  1  0.37445521  0.08347302  0.37031176  1
  H  H376  1  0.44765617  0.19828218  0.29646775  1
  C  C377  1  0.40638317  0.23157438  0.42946993  1
  H  H378  1  0.27351784  0.19237771  0.41293269  1
  C  C379  1  0.33790374  0.06535691  0.34335863  1
  H  H380  1  0.42799224  0.28232381  0.47938076  1
  H  H381  1  0.48674790  0.32552976  0.38846517  1
  H  H382  1  0.36539031  0.34384315  0.47878912  1
  H  H383  1  0.43281618  0.12510637  0.32610149  1
  O  O384  1  0.31961950  0.45902363  0.34455478  1
  C  C385  1  0.33935588  0.40583923  0.36318203  1
  H  H386  1  0.44795499  0.35631347  0.30090838  1
  C  C387  1  0.49996108  0.35230506  0.28876609  1
  H  H388  1  0.35967171  0.31174672  0.61399388  1
  C  C389  1  0.40291804  0.33706703  0.62760189  1
  C  C390  1  0.40172691  0.40168965  0.63326322  1
  O  O391  1  0.41011199  0.21072476  0.60673729  1
  Zn  Zn392  1  0.39560182  0.18333957  0.53619817  1
  H  H393  1  0.35320597  0.42302694  0.63010187  1
  H  H394  1  0.43583213  0.09241021  0.61906416  1
  H  H395  1  0.32781036  0.10090582  0.66625334  1
  C  C396  1  0.34075262  0.46488228  0.51465035  1
  C  C397  1  0.45636802  0.44186650  0.64160330  1
  O  O398  1  0.30304442  0.11929755  0.55056651  1
  C  C399  1  0.46208625  0.23893821  0.61849745  1
  C  C400  1  0.46179208  0.30671628  0.63226705  1
  C  C401  1  0.29873191  0.10629459  0.69950245  1
  H  H402  1  0.34809971  0.33014089  0.71335363  1
  H  H403  1  0.30122830  0.40243188  0.70914697  1
  H  H404  1  0.40419287  0.43372399  0.71027370  1
  C  C405  1  0.46716094  0.05224557  0.60960074  1
  H  H406  1  0.38311226  0.42653160  0.51319577  1
  H  H407  1  0.44987685  0.36028463  0.72172301  1
  H  H408  1  0.34347109  0.02779511  0.57590206  1
  C  C409  1  0.26456670  0.14797587  0.52313698  1
  C  C410  1  0.43349922  0.40701422  0.73594303  1
  C  C411  1  0.32667901  0.06325690  0.73756696  1
  C  C412  1  0.27225173  0.44984073  0.51070425  1
  O  O413  1  0.44967414  0.36795418  0.51553934  1
  H  H414  1  0.45402041  0.36316329  0.54979347  1
  C  C415  1  0.30900428  0.35816906  0.73222087  1
  H  H416  1  0.27288467  0.49935129  0.59242599  1
  H  H417  1  0.30108206  0.15791706  0.70982021  1
  C  C418  1  0.39579882  0.08152664  0.74883977  1
  O  O419  1  0.45411954  0.10575349  0.50941570  1
  H  H420  1  0.40456712  0.13202158  0.74168876  1
  H  H421  1  0.43267911  0.05488497  0.72780181  1
  H  H422  1  0.28115191  0.19005870  0.65186071  1
  O  O423  1  0.28708684  0.19219016  0.50141963  1
  H  H424  1  0.48770399  0.39061452  0.50930308  1
  C  C425  1  0.26049597  0.49533824  0.67040879  1
  O  O426  1  0.42134543  0.23364525  0.73501394  1
  H  H427  1  0.47720031  0.43580780  0.74113384  1
  H  H428  1  0.28734454  0.00282251  0.66008087  1
  C  C429  1  0.44681389  0.22468922  0.76662992  1
  H  H430  1  0.49362545  0.13958810  0.77586228  1
  C  C431  1  0.26150419  0.37943027  0.99247818  1
  C  C432  1  0.28991819  0.36625482  0.82408308  1
  C  C433  1  0.32978041  0.07347277  0.94526398  1
  C  C434  1  0.43368767  0.15649385  0.94481402  1
  C  C435  1  0.35992927  0.44734602  0.94771960  1
  C  C436  1  0.38193445  0.42429968  0.86649736  1
  C  C437  1  0.38901994  0.05862233  0.96863705  1
  H  H438  1  0.25832978  0.01117096  0.82749855  1
  H  H439  1  0.40971338  0.07080609  0.78657591  1
  C  C440  1  0.48728742  0.02516744  0.82684885  1
  C  C441  1  0.39403471  0.40132898  0.78235513  1
  H  H442  1  0.39801841  0.30758062  0.87574302  1
  H  H443  1  0.32465307  0.17924394  0.82827275  1
  H  H444  1  0.43844256  0.06276896  0.89221218  1
  C  C445  1  0.48243866  0.28139788  0.92163252  1
  C  C446  1  0.32356351  0.38449398  0.86774957  1
  H  H447  1  0.45684119  0.12198177  0.85422697  1
  C  C448  1  0.43061846  0.26730268  0.88442001  1
  H  H449  1  0.33530557  0.27315658  0.78107690  1
  C  C450  1  0.46562229  0.30501906  0.96688871  1
  C  C451  1  0.28941648  0.24552082  0.77544223  1
  H  H452  1  0.47408223  0.18938556  0.94181363  1
  H  H453  1  0.38085392  0.24956029  0.99471020  1
  C  C454  1  0.30748204  0.40089299  0.95014835  1
  C  C455  1  0.41954906  0.42990561  0.82377436  1
  H  H456  1  0.36966162  0.30088993  0.94469616  1
  H  H457  1  0.28704193  0.04196997  0.95415233  1
  C  C458  1  0.32749513  0.37430657  0.78121480  1
  C  C459  1  0.28583548  0.37419713  0.90971320  1
  C  C460  1  0.39423761  0.29669202  0.97925751  1
  C  C461  1  0.28219372  0.19599372  0.80546402  1
  C  C462  1  0.47643223  0.07485447  0.86542426  1
  C  C463  1  0.46430948  0.49260815  0.90424164  1
  C  C464  1  0.43901458  0.10225578  0.97142851  1
  O  O465  1  0.37262999  0.22145545  0.88905130  1
  C  C466  1  0.36995784  0.48618558  0.99282701  1
  H  H467  1  0.46420013  0.45616943  0.82486537  1
  C  C468  1  0.40272803  0.45202369  0.90907967  1
  C  C469  1  0.32553892  0.12684128  0.91796095  1
  H  H470  1  0.45740871  0.25672176  0.85071450  1
  C  C471  1  0.37846818  0.17078652  0.91568114  1
  H  H472  1  0.28366483  0.13129105  0.89358488  1
  H  H473  1  0.48137701  0.09450924  0.99353039  1
  C  C474  1  0.29633999  0.00712302  0.75201144  1
  C  C475  1  0.40053320  0.00068899  0.99807954  1
  O  O476  1  0.37046098  0.72213610  0.16401215  1
  C  C477  1  0.43525960  0.65286827  0.11334940  1
  H  H478  1  0.37053543  0.81364269  0.15361916  1
  C  C479  1  0.36146487  0.78130763  0.18483125  1
  C  C480  1  0.37892573  0.62112020  0.09863884  1
  H  H481  1  0.33422231  0.63904981  0.12006932  1
  C  C482  1  0.38274355  0.57294696  0.06717574  1
  O  O483  1  0.29898810  0.71718209  0.05313604  1
  H  H484  1  0.33540988  0.55389053  0.06174587  1
  C  C485  1  0.44052721  0.55203408  0.04521927  1
  C  C486  1  0.43491948  0.70599312  0.14694276  1
  C  C487  1  0.35845408  0.91595119  0.19958518  1
  C  C488  1  0.30524479  0.80778176  0.21653749  1
  H  H489  1  0.40805004  0.77909218  0.20725825  1
  C  C490  1  0.30902915  0.87380563  0.22491778  1
  H  H491  1  0.32644783  0.90710936  0.06576161  1
  H  H492  1  0.38838613  0.90583496  0.08932927  1
  O  O493  1  0.34543394  0.88652454  0.09134207  1
  C  C494  1  0.26758089  0.69295945  0.23184825  1
  H  H495  1  0.34692076  0.96478744  0.20469303  1
  C  C496  1  0.32509212  0.69576371  0.01970321  1
  H  H497  1  0.25172410  0.68520035  0.19467822  1
  H  H498  1  0.36051063  0.90560001  0.16014974  1
  C  C499  1  0.47222889  0.98325530  0.17466534  1
  O  O500  1  0.44840690  0.99097460  0.02094100  1
  H  H501  1  0.40944094  0.90733033  0.20979727  1
  C  C502  1  0.26527949  0.76340236  0.24090738  1
  Zn  Zn503  1  0.42469352  0.70827881  0.00796299  1
  O  O504  1  0.48287925  0.73096833  0.16121180  1
  H  H505  1  0.31747225  0.66993831  0.23512276  1
  C  C506  1  0.49595275  0.63333554  0.09391806  1
  C  C507  1  0.49583392  0.58460862  0.06326602  1
  H  H508  1  0.43662671  0.99019846  0.10045107  1
  H  H509  1  0.27420692  0.98981264  0.22756630  1
  O  O510  1  0.43905083  0.50856716  0.01331022  1
  O  O511  1  0.34484123  0.95842648  0.00693524  1
  C  C512  1  0.45932241  0.91133765  0.38008620  1
  H  H513  1  0.38539820  0.79372062  0.35431734  1
  O  O514  1  0.25956051  0.72343015  0.38896001  1
  C  C515  1  0.26255615  0.89743374  0.25664793  1
  H  H516  1  0.43856805  0.99477427  0.34360571  1
  O  O517  1  0.25657381  0.62467971  0.36070933  1
  C  C518  1  0.41682486  0.95733468  0.36679790  1
  C  C519  1  0.33264459  0.91618580  0.41632893  1
  H  H520  1  0.28238018  0.91572019  0.42825099  1
  H  H521  1  0.35437877  0.77796326  0.30506988  1
  C  C522  1  0.25838129  0.96760294  0.26210267  1
  O  O523  1  0.36294412  0.76111179  0.33488359  1
  H  H524  1  0.35488989  0.83125163  0.45582460  1
  C  C525  1  0.43517375  0.86654174  0.41378507  1
  H  H526  1  0.28835361  0.98379794  0.29259190  1
  C  C527  1  0.37158037  0.86770142  0.43075971  1
  C  C528  1  0.35260225  0.96094499  0.38308979  1
  O  O529  1  0.45580614  0.77604879  0.45856649  1
  C  C530  1  0.47754980  0.81520978  0.43154831  1
  H  H531  1  0.29945571  0.72387208  0.36952853  1
  O  O532  1  0.33647796  0.64189196  0.54989052  1
  H  H533  1  0.40937960  0.72089793  0.54838195  1
  C  C534  1  0.40721022  0.75857562  0.57432747  1
  C  C535  1  0.36198015  0.75936344  0.60921612  1
  H  H536  1  0.43882788  0.79962774  0.56847206  1
  H  H537  1  0.37323937  0.90182454  0.60518119  1
  C  C538  1  0.39235343  0.87401786  0.63580984  1
  C  C539  1  0.31130703  0.65251541  0.58964627  1
  C  C540  1  0.31139473  0.57583703  0.53238593  1
  O  O541  1  0.47026035  0.87616943  0.61757526  1
  C  C542  1  0.35341209  0.81617427  0.64056585  1
  H  H543  1  0.39000070  0.90311022  0.66659330  1
  C  C544  1  0.31628924  0.70452607  0.61856571  1
  C  C545  1  0.31635955  0.80698333  0.67991668  1
  H  H546  1  0.40310951  0.72804705  0.69536055  1
  C  C547  1  0.31945956  0.85422873  0.72142590  1
  H  H548  1  0.40443850  0.57775745  0.64924814  1
  C  C549  1  0.42046507  0.72463297  0.73204433  1
  C  C550  1  0.34085580  0.53910385  0.72631722  1
  C  C551  1  0.32835616  0.52309806  0.68046634  1
  C  C552  1  0.28490557  0.95886858  0.54270687  1
  C  C553  1  0.38163299  0.53094347  0.64388367  1
  Zn  Zn554  1  0.47883993  0.98264988  0.55473178  1
  C  C555  1  0.49630333  0.93001640  0.61651752  1
  H  H556  1  0.43824210  0.56820659  0.70837690  1
  H  H557  1  0.35925912  0.52531668  0.60969871  1
  H  H558  1  0.40483664  0.54042324  0.52799404  1
  C  C559  1  0.27603804  0.75476940  0.69013046  1
  C  C560  1  0.27446806  0.70313753  0.65794785  1
  H  H561  1  0.28831931  0.89677386  0.71575843  1
  C  C562  1  0.35445930  0.52673331  0.52527610  1
  H  H563  1  0.42987959  0.98369381  0.66304834  1
  C  C564  1  0.46300105  0.98838053  0.63302193  1
  H  H565  1  0.29950837  0.97426897  0.50763280  1
  H  H566  1  0.28163408  0.61175999  0.60136748  1
  C  C567  1  0.48460602  0.70851865  0.74061727  1
  C  C568  1  0.40286352  0.57758512  0.73720888  1
  C  C569  1  0.28133071  0.97548210  0.62859516  1
  O  O570  1  0.45288997  0.50261474  0.64565774  1
  C  C571  1  0.30763070  0.99018234  0.58301295  1
  H  H572  1  0.39492724  0.63030342  0.73461766  1
  H  H573  1  0.26357480  0.59986400  0.66783500  1
  H  H574  1  0.36975870  0.87149104  0.72461566  1
  H  H575  1  0.32710487  0.75094642  0.76521641  1
  H  H576  1  0.37496117  0.99018363  0.80355371  1
  C  C577  1  0.37871708  0.73591063  0.77018068  1
  H  H578  1  0.30152188  0.83644074  0.75660172  1
  C  C579  1  0.25365238  0.98037777  0.85845287  1
  H  H580  1  0.45745870  0.53388226  0.87848835  1
  C  C581  1  0.49917162  0.69767148  0.96059425  1
  H  H582  1  0.35510096  0.53686318  0.98885366  1
  O  O583  1  0.26098883  0.55237910  0.85468137  1
  C  C584  1  0.36219193  0.63823744  0.93914599  1
  C  C585  1  0.31476773  0.66172259  0.97508890  1
  C  C586  1  0.36217746  0.74221203  0.86049960  1
  H  H587  1  0.42468569  0.56350693  0.77220280  1
  C  C588  1  0.29145578  0.92662631  0.85600171  1
  H  H589  1  0.46449203  0.81590128  0.77029928  1
  H  H590  1  0.32145090  0.85192567  0.90270778  1
  H  H591  1  0.47856471  0.79298124  0.93850181  1
  H  H592  1  0.41828659  0.89686342  0.87827734  1
  C  C593  1  0.47117255  0.96051651  0.83211093  1
  C  C594  1  0.48457292  0.91655114  0.79454393  1
  O  O595  1  0.32896015  0.91474348  0.81780361  1
  H  H596  1  0.34797178  0.51622203  0.82881188  1
  H  H597  1  0.42044947  0.83978529  0.81847127  1
  H  H598  1  0.32084395  0.97059110  0.97776115  1
  H  H599  1  0.41651214  0.64256393  0.94296771  1
  C  C600  1  0.29451791  0.52680144  0.76414813  1
  H  H601  1  0.33433334  0.59934918  0.80789741  1
  C  C602  1  0.28893214  0.89220676  0.89753186  1
  C  C603  1  0.47015112  0.71169727  0.82642704  1
  C  C604  1  0.46889883  0.84703291  0.80197415  1
  H  H605  1  0.38311914  0.59700941  0.87162868  1
  C  C606  1  0.31186291  0.55082330  0.81188253  1
  C  C607  1  0.27993840  0.58346524  0.89235055  1
  C  C608  1  0.45709588  0.93446978  0.88057896  1
  H  H609  1  0.30874608  0.74243783  0.85850734  1
  C  C610  1  0.34233340  0.96224320  0.77836627  1
  C  C611  1  0.40441365  0.72989844  0.81572685  1
  H  H612  1  0.48766344  0.70446687  0.86275779  1
  C  C613  1  0.34353482  0.60431242  0.89923761  1
  O  O614  1  0.37776727  0.75779231  0.89940693  1
  H  H615  1  0.37544659  0.93516831  0.75350972  1
  H  H616  1  0.43918080  0.97172644  0.90628584  1
  H  H617  1  0.48270387  0.51295492  0.93718235  1
  C  C618  1  0.61111886  0.25618130  0.14376521  1
  C  C619  1  0.63879451  0.31206475  0.15804616  1
  O  O620  1  0.55104936  0.23455800  0.15470882  1
  C  C621  1  0.54884389  0.13283223  0.21783832  1
  H  H622  1  0.61403751  0.34225279  0.18463944  1
  H  H623  1  0.63317119  0.17362001  0.10358245  1
  C  C624  1  0.59917251  0.05732616  0.08340826  1
  C  C625  1  0.65296334  0.21818019  0.11569607  1
  O  O626  1  0.59565383  0.08077988  0.12060586  1
  C  C627  1  0.63362075  0.32722358  0.02602452  1
  C  C628  1  0.69925095  0.33666649  0.14828836  1
  H  H629  1  0.65932730  0.28105297  0.03575261  1
  H  H630  1  0.61354543  0.34395083  0.06031568  1
  C  C631  1  0.55618338  0.43164017  0.06612132  1
  H  H632  1  0.56931393  0.09035647  0.23283153  1
  H  H633  1  0.59979554  0.16712699  0.04889713  1
  C  C634  1  0.60338929  0.06752888  0.03245602  1
  H  H635  1  0.58339527  0.15164241  0.18965513  1
  C  C636  1  0.71449473  0.23841174  0.10338308  1
  H  H637  1  0.50050467  0.11587976  0.20031843  1
  H  H638  1  0.71975624  0.37686511  0.16635015  1
  C  C639  1  0.68959894  0.22039685  0.23269815  1
  C  C640  1  0.51410431  0.43920370  0.22822490  1
  C  C641  1  0.51607412  0.26707725  0.19776708  1
  O  O642  1  0.51864853  0.38606750  0.08452176  1
  H  H643  1  0.67351744  0.35832301  0.01367228  1
  C  C644  1  0.60021925  0.13339806  0.02101058  1
  C  C645  1  0.59776712  0.46550283  0.09579186  1
  H  H646  1  0.63865939  0.22616546  0.24727743  1
  C  C647  1  0.58178156  0.44842136  0.24135216  1
  H  H648  1  0.69946705  0.25726503  0.20812840  1
  H  H649  1  0.51473005  0.31892431  0.19614762  1
  H  H650  1  0.68932458  0.18056911  0.20796540  1
  H  H651  1  0.59155556  0.45212261  0.13265837  1
  C  C652  1  0.51126606  0.32299659  0.00218360  1
  C  C653  1  0.73869008  0.29806455  0.11910737  1
  C  C654  1  0.56528115  0.45082397  0.01865388  1
  H  H655  1  0.73886144  0.20464538  0.07854893  1
  H  H656  1  0.72517944  0.04235438  0.04542269  1
  C  C657  1  0.60991307  0.49712508  0.00524248  1
  C  C658  1  0.52857590  0.24376348  0.24858447  1
  O  O659  1  0.72469301  0.00124962  0.06084233  1
  H  H660  1  0.67689836  0.49377934  0.24205620  1
  C  C661  1  0.62600286  0.49271617  0.22826594  1
  C  C662  1  0.74365980  0.20818006  0.26942178  1
  C  C663  1  0.55109771  0.15934287  0.30611976  1
  C  C664  1  0.58549499  0.01108107  0.46422684  1
  H  H665  1  0.60550662  0.41409748  0.26487451  1
  H  H666  1  0.53448633  0.38400152  0.30943346  1
  O  O667  1  0.57476718  0.37237878  0.38155306  1
  C  C668  1  0.68447723  0.08224689  0.45102351  1
  C  C669  1  0.54980908  0.20311668  0.34414622  1
  C  C670  1  0.70134451  0.02634459  0.47142266  1
  C  C671  1  0.70266281  0.46702539  0.32831324  1
  O  O672  1  0.74755604  0.15760024  0.28937605  1
  H  H673  1  0.63183854  0.47823786  0.37952444  1
  C  C674  1  0.55492557  0.17525648  0.39361637  1
  C  C675  1  0.53758424  0.26675809  0.33516531  1
  C  C676  1  0.53946086  0.17937813  0.25818444  1
  C  C677  1  0.72473688  0.10662595  0.30547124  1
  H  H678  1  0.52730613  0.13094864  0.39300896  1
  H  H679  1  0.66113876  0.18996651  0.32612196  1
  O  O680  1  0.72437342  0.36580573  0.43541954  1
  O  O681  1  0.58837362  0.03058116  0.29163330  1
  H  H682  1  0.73913574  0.32757606  0.27193185  1
  H  H683  1  0.60063477  0.01024064  0.38670129  1
  H  H684  1  0.68527484  0.29145821  0.48443549  1
  C  C685  1  0.57138513  0.09442124  0.32022824  1
  O  O686  1  0.62314792  0.16059507  0.40977072  1
  H  H687  1  0.64137335  0.29752719  0.32298191  1
  C  C688  1  0.65985709  0.34516756  0.32279331  1
  C  C689  1  0.71300657  0.36001844  0.29510352  1
  C  C690  1  0.62533714  0.10828401  0.43489871  1
  H  H691  1  0.68578559  0.37546054  0.41990216  1
  H  H692  1  0.67939742  0.08819057  0.28906613  1
  H  H693  1  0.52180987  0.08654139  0.44047791  1
  C  C694  1  0.62578284  0.38455886  0.35436575  1
  C  C695  1  0.65284433  0.44545843  0.35451978  1
  H  H696  1  0.52740863  0.07190441  0.33549711  1
  C  C697  1  0.51935904  0.28431564  0.28764886  1
  C  C698  1  0.53574672  0.31110451  0.37752489  1
  H  H699  1  0.52916039  0.20014044  0.42195344  1
  H  H700  1  0.72755831  0.10989655  0.44777538  1
  H  H701  1  0.55791531  0.28678780  0.40602036  1
  C  C702  1  0.73171996  0.42385024  0.29676608  1
  H  H703  1  0.60941250  0.09215370  0.34708706  1
  C  C704  1  0.57128929  0.06948592  0.44736408  1
  C  C705  1  0.71253552  0.17664215  0.32083377  1
  O  O706  1  0.67281394  0.19556604  0.55876685  1
  H  H707  1  0.56898402  0.31785021  0.64332834  1
  Zn  Zn708  1  0.57868356  0.14078388  0.54823227  1
  H  H709  1  0.55852948  0.43571821  0.65161235  1
  H  H710  1  0.67447353  0.18855801  0.69301672  1
  C  C711  1  0.69236308  0.15541441  0.72110190  1
  O  O712  1  0.67480280  0.40856125  0.64135651  1
  C  C713  1  0.52544038  0.06497962  0.57628071  1
  H  H714  1  0.61869133  0.03615446  0.70619096  1
  H  H715  1  0.62298062  0.02009157  0.56041700  1
  C  C716  1  0.69192051  0.22476917  0.52463902  1
  C  C717  1  0.52014617  0.34251133  0.63987711  1
  O  O718  1  0.51504243  0.21167223  0.61836917  1
  H  H719  1  0.72811538  0.34530896  0.59191984  1
  C  C720  1  0.72988278  0.41753760  0.63067560  1
  C  C721  1  0.56867019  0.01576845  0.70038916  1
  C  C722  1  0.51500139  0.40628640  0.64595750  1
  H  H723  1  0.72241461  0.44215354  0.72821651  1
  C  C724  1  0.50131284  0.07973911  0.52636782  1
  O  O725  1  0.65538794  0.27483225  0.51020394  1
  O  O726  1  0.58240352  0.14169113  0.74880258  1
  H  H727  1  0.54194736  0.05446703  0.68372027  1
  C  C728  1  0.57412364  0.01047206  0.57646488  1
  C  C729  1  0.73648145  0.45988525  0.76244341  1
  C  C730  1  0.60346423  0.15170857  0.97442867  1
  H  H731  1  0.52260787  0.08391598  0.88739050  1
  C  C732  1  0.67484462  0.08698116  0.78511690  1
  H  H733  1  0.60294081  0.20083825  0.87746098  1
  C  C734  1  0.69917100  0.47834058  0.89766273  1
  H  H735  1  0.53937942  0.42553042  0.99068105  1
  O  O736  1  0.70416196  0.37324168  0.93424034  1
  H  H737  1  0.68098334  0.15381199  0.85569088  1
  H  H738  1  0.71704040  0.13560880  0.93346976  1
  C  C739  1  0.71782849  0.18478967  0.86896998  1
  H  H740  1  0.61690941  0.27814300  0.84837106  1
  C  C741  1  0.74026703  0.07388903  0.78858604  1
  O  O742  1  0.71581146  0.25834194  0.80196882  1
  C  C743  1  0.60605843  0.10695960  0.93608586  1
  C  C744  1  0.67187424  0.30794817  0.93548349  1
  C  C745  1  0.62592584  0.40144005  0.87574373  1
  C  C746  1  0.60703467  0.04207949  0.94959082  1
  C  C747  1  0.55017816  0.28112551  0.91045355  1
  C  C748  1  0.52003042  0.04101465  0.78419058  1
  H  H749  1  0.53994672  0.24354135  0.83706876  1
  O  O750  1  0.60834831  0.12294159  0.89442486  1
  C  C751  1  0.73399704  0.24062617  0.84321028  1
  C  C752  1  0.64704573  0.12914815  0.75219285  1
  H  H753  1  0.55497087  0.12620096  0.81805217  1
  H  H754  1  0.68270577  0.28881852  0.90013041  1
  H  H755  1  0.56225919  0.41490390  0.81972301  1
  H  H756  1  0.60455073  0.00693087  0.92117507  1
  C  C757  1  0.60721031  0.02152694  0.99406618  1
  C  C758  1  0.53729020  0.10922003  0.78183177  1
  H  H759  1  0.70740899  0.35412070  0.78502615  1
  H  H760  1  0.60740555  0.35338500  0.87865717  1
  C  C761  1  0.74880807  0.32284436  0.78103070  1
  C  C762  1  0.67963827  0.41696692  0.90646414  1
  H  H763  1  0.69924196  0.27961584  0.96248249  1
  C  C764  1  0.59622765  0.43698911  0.84243107  1
  H  H765  1  0.74330151  0.49962155  0.91461418  1
  C  C766  1  0.57944852  0.24912923  0.86652703  1
  H  H767  1  0.64232843  0.06216140  0.80803028  1
  C  C768  1  0.59888623  0.30270860  0.94261808  1
  H  H769  1  0.50730511  0.46559365  0.88716466  1
  H  H770  1  0.60455247  0.20212321  0.96151262  1
  C  C771  1  0.74081234  0.17152823  0.91222692  1
  H  H772  1  0.69717066  0.45316817  0.78764178  1
  C  C773  1  0.57897297  0.31888344  0.98952838  1
  Zn  Zn774  1  0.61191077  0.96135062  0.08587416  1
  C  C775  1  0.64531140  0.81358928  0.05103680  1
  O  O776  1  0.59563764  0.78893745  0.04150151  1
  O  O777  1  0.64576416  0.86022300  0.09217493  1
  H  H778  1  0.60474481  0.85078771  0.10675962  1
  C  C779  1  0.71032757  0.80626276  0.03061576  1
  H  H780  1  0.53987179  0.65256932  0.10842124  1
  O  O781  1  0.61531488  0.63010893  0.14962882  1
  H  H782  1  0.52052898  0.56749109  0.15170492  1
  O  O783  1  0.55209288  0.91524041  0.19831411  1
  C  C784  1  0.53773927  0.53048908  0.17655808  1
  C  C785  1  0.59973672  0.53570117  0.19561501  1
  C  C786  1  0.64597665  0.58385293  0.17672554  1
  O  O787  1  0.52797834  0.91788901  0.12147827  1
  H  H788  1  0.65428284  0.65607165  0.13791127  1
  C  C789  1  0.52123207  0.93234803  0.16389946  1
  H  H790  1  0.67435962  0.52997754  0.11371178  1
  H  H791  1  0.54466190  0.56279823  0.05672143  1
  O  O792  1  0.70159774  0.58629700  0.18764837  1
  C  C793  1  0.64315560  0.51240472  0.08577161  1
  H  H794  1  0.68823711  0.76320711  0.10534357  1
  H  H795  1  0.72271111  0.70000218  0.09346286  1
  O  O796  1  0.70261648  0.72079843  0.11749151  1
  C  C797  1  0.65157104  0.52567181  0.03740709  1
  H  H798  1  0.74239820  0.97518154  0.03396756  1
  C  C799  1  0.69652392  0.57681220  0.02087226  1
  O  O800  1  0.73625068  0.60429006  0.04314721  1
  H  H801  1  0.50291601  0.98800436  0.24867122  1
  H  H802  1  0.61008221  0.96983021  0.00134320  1
  H  H803  1  0.51035327  0.91317421  0.36811863  1
  C  C804  1  0.65129677  0.92425948  0.49674076  1
  O  O805  1  0.71233045  0.77380017  0.35476484  1
  H  H806  1  0.54215951  0.98096044  0.46994718  1
  H  H807  1  0.63680598  0.91537576  0.42288011  1
  O  O808  1  0.68989759  0.81309064  0.42420788  1
  H  H809  1  0.61529171  0.92612961  0.25165414  1
  H  H810  1  0.74847837  0.72150875  0.38025269  1
  C  C811  1  0.63278761  0.92005456  0.38632207  1
  C  C812  1  0.64552475  0.86814395  0.30926905  1
  O  O813  1  0.53828709  0.81382818  0.41899711  1
  Zn  Zn814  1  0.60544131  0.79523653  0.47284468  1
  C  C815  1  0.64790456  0.98577552  0.47714780  1
  C  C816  1  0.62197718  0.92229847  0.28953583  1
  C  C817  1  0.60412147  0.97795864  0.31337566  1
  H  H818  1  0.70898742  0.97108194  0.31287915  1
  C  C819  1  0.65196307  0.86858432  0.35842943  1
  C  C820  1  0.61226724  0.97219814  0.36260043  1
  C  C821  1  0.68683774  0.81421697  0.37890209  1
  H  H822  1  0.71999915  0.51529146  0.33060582  1
  H  H823  1  0.66435142  0.82559988  0.28968226  1
  C  C824  1  0.74566619  0.99237358  0.33684411  1
  C  C825  1  0.67402764  0.78470684  0.58475581  1
  C  C826  1  0.69834054  0.85752585  0.64477579  1
  C  C827  1  0.63506422  0.85552312  0.66416592  1
  C  C828  1  0.68948058  0.74538824  0.54078231  1
  C  C829  1  0.61334530  0.77733045  0.60500742  1
  O  O830  1  0.61904441  0.88719586  0.70208540  1
  C  C831  1  0.54720294  0.88275075  0.72190094  1
  O  O832  1  0.59206380  0.69253099  0.70128536  1
  H  H833  1  0.59840161  0.90945690  0.59550974  1
  C  C834  1  0.59244528  0.81084761  0.64437883  1
  H  H835  1  0.57802433  0.74490267  0.59188437  1
  C  C836  1  0.56185265  0.94670575  0.59893496  1
  C  C837  1  0.71798345  0.82593038  0.60443673  1
  H  H838  1  0.54420590  0.79833306  0.65884954  1
  C  C839  1  0.52921688  0.69799062  0.69644966  1
  H  H840  1  0.52363117  0.88068476  0.68745721  1
  H  H841  1  0.73131131  0.89333101  0.65781387  1
  O  O842  1  0.70872454  0.90720787  0.51205427  1
  O  O843  1  0.74584265  0.74449971  0.52260131  1
  H  H844  1  0.54835771  0.83654409  0.74128162  1
  Zn  Zn845  1  0.67406936  0.71819688  0.74156883  1
  H  H846  1  0.74386417  0.61129538  0.69937858  1
  O  O847  1  0.50414007  0.70194734  0.65764093  1
  C  C848  1  0.73417666  0.51997011  0.67130575  1
  O  O849  1  0.64076746  0.72458735  0.51945707  1
  H  H850  1  0.68019785  0.51905348  0.68012077  1
  C  C851  1  0.53811522  0.99740784  0.74830146  1
  H  H852  1  0.57111797  0.97760201  0.67488385  1
  O  O853  1  0.60283054  0.88959195  0.50383048  1
  H  H854  1  0.51749422  0.59757700  0.97979172  1
  C  C855  1  0.61740653  0.50362241  0.83668768  1
  H  H856  1  0.71683699  0.62918070  0.97031376  1
  C  C857  1  0.58849198  0.54456557  0.80332924  1
  O  O858  1  0.56149788  0.57552306  0.77589910  1
  H  H859  1  0.74409533  0.51173332  0.76107726  1
  C  C860  1  0.59553259  0.69451095  0.89902198  1
  H  H861  1  0.69504131  0.56637594  0.86715203  1
  C  C862  1  0.51657161  0.93386180  0.75253175  1
  C  C863  1  0.69176562  0.87311785  0.90267491  1
  H  H864  1  0.50948453  0.82725833  0.82557495  1
  C  C865  1  0.50892389  0.75301803  0.93218448  1
  H  H866  1  0.72319750  0.84398150  0.78793011  1
  C  C867  1  0.71121858  0.91372065  0.86595140  1
  C  C868  1  0.50779162  0.69977972  0.78686689  1
  H  H869  1  0.67771940  0.98254657  0.81303491  1
  C  C870  1  0.52827415  0.64005330  0.95889125  1
  H  H871  1  0.61312441  0.84832688  0.94477621  1
  H  H872  1  0.57358828  0.97905646  0.83323898  1
  C  C873  1  0.56003906  0.75325732  0.90067306  1
  C  C874  1  0.73597729  0.72124195  0.80491230  1
  O  O875  1  0.51327639  0.90211520  0.90895666  1
  C  C876  1  0.62771329  0.87970311  0.91476050  1
  C  C877  1  0.72220716  0.76656812  0.99200901  1
  C  C878  1  0.57436205  0.91005843  0.89450249  1
  O  O879  1  0.68811046  0.59009138  0.97308476  1
  H  H880  1  0.68489625  0.66086513  0.86333878  1
  O  O881  1  0.73520244  0.61523924  0.78652479  1
  H  H882  1  0.72457743  0.84134586  0.92329073  1
  O  O883  1  0.66447119  0.74242808  0.83958479  1
  C  C884  1  0.66539815  0.95213796  0.84347827  1
  H  H885  1  0.57272579  0.79266709  0.87753141  1
  C  C886  1  0.64623591  0.69978171  0.86643739  1
  H  H887  1  0.68149567  0.73547191  0.98012710  1
  H  H888  1  0.56001903  0.69239044  0.79160483  1
  H  H889  1  0.60184714  0.59913382  0.91420078  1
  C  C890  1  0.60072033  0.94480396  0.85603890  1
  C  C891  1  0.57982738  0.64071235  0.92494608  1
  C  C892  1  0.67161590  0.52119588  0.86792117  1
  H  H893  1  0.61618635  0.50166746  0.96771310  1
  C  C894  1  0.86995091  0.15842921  0.15240377  1
  C  C895  1  0.80307006  0.32715320  0.10915929  1
  O  O896  1  0.83603818  0.37120793  0.12235555  1
  O  O897  1  0.81487817  0.14371646  0.16274326  1
  C  C898  1  0.91937876  0.13476583  0.23524923  1
  Zn  Zn899  1  0.84673199  0.25501973  0.06790420  1
  H  H900  1  0.92288599  0.05376440  0.12192253  1
  C  C901  1  0.92693630  0.14979700  0.18756055  1
  O  O902  1  0.88652931  0.17753929  0.11151929  1
  H  H903  1  0.86850267  0.27865988  0.21341260  1
  C  C904  1  0.98823719  0.16450339  0.17001084  1
  C  C905  1  0.81447396  0.27699567  0.21761451  1
  H  H906  1  0.79716163  0.32594462  0.21506308  1
  H  H907  1  0.79492325  0.24571873  0.18865266  1
  H  H908  1  0.98632821  0.17937874  0.13126518  1
  C  C909  1  0.93829428  0.02803504  0.09011150  1
  H  H910  1  0.95889030  0.01994972  0.24890552  1
  H  H911  1  0.83120406  0.46280700  0.15975304  1
  C  C912  1  0.84630888  0.49764691  0.12997384  1
  H  H913  1  0.87441467  0.46874011  0.10475610  1
  O  O914  1  0.79346389  0.41315281  0.22846286  1
  H  H915  1  0.89462801  0.19792201  0.01247678  1
  H  H916  1  0.83972933  0.01613199  0.06657443  1
  C  C917  1  0.89034198  0.00503452  0.05832895  1
  O  O918  1  0.78553345  0.15205603  0.00842382  1
  H  H919  1  0.87131210  0.12742397  0.25013459  1
  C  C920  1  0.97493842  0.13416005  0.26214430  1
  C  C921  1  0.80016365  0.24512004  0.26448495  1
  C  C922  1  0.83868144  0.04583789  0.40072840  1
  O  O923  1  0.92331311  0.35245273  0.42714869  1
  H  H924  1  0.76609185  0.28947555  0.45680032  1
  C  C925  1  0.84182999  0.25314560  0.30470400  1
  O  O926  1  0.89038104  0.28093244  0.31602088  1
  C  C927  1  0.78507674  0.24452219  0.46683798  1
  C  C928  1  0.87904452  0.17253110  0.46153373  1
  H  H929  1  0.87566664  0.06837991  0.42421434  1
  H  H930  1  0.86492877  0.24954885  0.41686989  1
  H  H931  1  0.93910615  0.19412396  0.37220965  1
  C  C932  1  0.96804195  0.19893376  0.40376272  1
  C  C933  1  0.80407126  0.08294737  0.36913492  1
  O  O934  1  0.93247200  0.15239376  0.44021906  1
  H  H935  1  0.82475156  0.23248297  0.33904723  1
  C  C936  1  0.75634109  0.05773043  0.33792702  1
  H  H937  1  0.96696541  0.29130289  0.34903992  1
  C  C938  1  0.94781600  0.32901423  0.45924318  1
  H  H939  1  0.96863201  0.12491114  0.29950306  1
  H  H940  1  0.95615532  0.24616853  0.41923316  1
  C  C941  1  0.77871182  0.44575725  0.26047410  1
  C  C942  1  0.84331612  0.22400183  0.44696976  1
  H  H943  1  0.81356591  0.13223308  0.37057428  1
  H  H944  1  0.75898327  0.38406562  0.41772192  1
  H  H945  1  0.75267521  0.01078577  0.47489092  1
  C  C946  1  0.84647905  0.13876452  0.49823227  1
  C  C947  1  0.90096311  0.25956380  0.68630698  1
  O  O948  1  0.84450411  0.26208094  0.69502453  1
  C  C949  1  0.95260061  0.27775558  0.54357966  1
  H  H950  1  0.86862505  0.38198268  0.71391509  1
  O  O951  1  0.95348209  0.06587403  0.55616374  1
  H  H952  1  0.90102658  0.28371373  0.55275142  1
  H  H953  1  0.89937954  0.17215308  0.69223017  1
  O  O954  1  0.93268784  0.20022466  0.67645649  1
  C  C955  1  0.94591858  0.31328351  0.69281203  1
  C  C956  1  0.92107761  0.37181278  0.70523143  1
  C  C957  1  0.96966622  0.41470135  0.71183419  1
  H  H958  1  0.79257425  0.16620734  0.69726280  1
  H  H959  1  0.85428668  0.44116042  0.61300033  1
  C  C960  1  0.83251222  0.47925122  0.63174410  1
  H  H961  1  0.97201864  0.22194782  0.60516857  1
  H  H962  1  0.95723319  0.46103534  0.72573341  1
  O  O963  1  0.76230115  0.37331816  0.60055179  1
  H  H964  1  0.95283401  0.13548801  0.52187982  1
  C  C965  1  0.98098331  0.30264886  0.50079424  1
  C  C966  1  0.99429444  0.24462009  0.57405065  1
  H  H967  1  0.98699210  0.09894385  0.66103212  1
  H  H968  1  0.86607442  0.09512608  0.51220505  1
  C  C969  1  0.78515379  0.15103996  0.51508796  1
  C  C970  1  0.75703767  0.14208820  0.72021291  1
  H  H971  1  0.99349972  0.02568820  0.69540076  1
  O  O972  1  0.89049077  0.11691512  0.73425909  1
  C  C973  1  0.99697150  0.47563695  0.50800555  1
  H  H974  1  0.76381949  0.12196680  0.54127067  1
  C  C975  1  0.75437718  0.20751028  0.50106109  1
  C  C976  1  0.98860667  0.10065894  0.53570287  1
  C  C977  1  0.76615450  0.47356522  0.64424740  1
  H  H978  1  0.75156593  0.29832537  0.74445242  1
  H  H979  1  0.85520237  0.28934187  0.92406932  1
  C  C980  1  0.78601668  0.27039582  0.86762252  1
  C  C981  1  0.79956849  0.42610399  0.77908984  1
  C  C982  1  0.78140105  0.10137360  0.75513570  1
  C  C983  1  0.85326363  0.08723272  0.75956544  1
  C  C984  1  0.81053138  0.35982376  0.78611659  1
  O  O985  1  0.87045982  0.23198289  0.99992404  1
  C  C986  1  0.90813898  0.44886913  0.81219850  1
  C  C987  1  0.92134450  0.38326370  0.81953870  1
  H  H988  1  0.80606126  0.31366732  0.85451931  1
  H  H989  1  0.85039845  0.24007817  0.77917818  1
  C  C990  1  0.80772196  0.18942863  0.98300332  1
  C  C991  1  0.87372801  0.33304832  0.80421339  1
  H  H992  1  0.75919254  0.04261378  0.81541797  1
  C  C993  1  0.88825596  0.27307007  0.79268189  1
  C  C994  1  0.81544467  0.25894881  0.91086367  1
  H  H995  1  0.93962958  0.25446076  0.79711216  1
  C  C996  1  0.98079139  0.36354374  0.84023405  1
  C  C997  1  0.95591544  0.49754170  0.82297853  1
  O  O998  1  0.87355511  0.04927497  0.79062754  1
  H  H999  1  0.99324383  0.31165856  0.84284645  1
  C  C1000  1  0.78820262  0.20851597  0.93566538  1
  C  C1001  1  0.84868662  0.46685016  0.78905296  1
  O  O1002  1  0.88830889  0.94925854  0.18560244  1
  Zn  Zn1003  1  0.93586047  0.63555871  0.13492909  1
  C  C1004  1  0.88501084  0.64928385  0.20029120  1
  C  C1005  1  0.87607916  0.58125893  0.18764022  1
  H  H1006  1  0.86774709  0.86140589  0.04330169  1
  C  C1007  1  0.82419010  0.83386256  0.02854899  1
  C  C1008  1  0.94531098  0.93647432  0.18241461  1
  C  C1009  1  0.89433911  0.54665735  0.14476352  1
  C  C1010  1  0.90761547  0.96419246  0.02023298  1
  H  H1011  1  0.83651930  0.55517874  0.21108024  1
  C  C1012  1  0.96151996  0.53446880  0.12958444  1
  O  O1013  1  0.98589682  0.52963946  0.08597241  1
  C  C1014  1  0.98004099  0.95368720  0.01211572  1
  O  O1015  1  0.99056094  0.81299108  0.07936890  1
  Zn  Zn1016  1  0.97546038  0.86694037  0.14086985  1
  H  H1017  1  0.99484112  0.52105285  0.15768335  1
  C  C1018  1  0.86736703  0.68978611  0.23386721  1
  H  H1019  1  0.88745008  0.73796380  0.23432572  1
  H  H1020  1  0.80056844  0.51499373  0.11057392  1
  C  C1021  1  0.76586751  0.83871212  0.04951556  1
  H  H1022  1  0.76196367  0.86880238  0.08050646  1
  H  H1023  1  0.98354630  0.92822383  0.31035884  1
  H  H1024  1  0.93511805  0.59976637  0.26799684  1
  C  C1025  1  0.98022538  0.59927690  0.33886564  1
  H  H1026  1  0.95808303  0.74298872  0.30134655  1
  C  C1027  1  0.95851887  0.79622645  0.30433504  1
  Zn  Zn1028  1  0.95047230  0.53538482  0.42124411  1
  O  O1029  1  0.94607438  0.50525187  0.49756822  1
  O  O1030  1  0.91549730  0.81091758  0.27842194  1
  O  O1031  1  0.87137984  0.54356366  0.34037596  1
  C  C1032  1  0.93407044  0.75788715  0.44893100  1
  O  O1033  1  0.77290162  0.67565929  0.38460806  1
  C  C1034  1  0.85479436  0.75337258  0.38600523  1
  C  C1035  1  0.82401487  0.98109733  0.40253755  1
  C  C1036  1  0.97453739  0.61617053  0.28920540  1
  C  C1037  1  0.90833394  0.78084207  0.40659520  1
  C  C1038  1  0.84992758  0.93411881  0.43826865  1
  C  C1039  1  0.91050947  0.69918087  0.46294048  1
  H  H1040  1  0.92764722  0.82386138  0.39273000  1
  H  H1041  1  0.83112969  0.77874137  0.35384206  1
  H  H1042  1  0.83652958  0.62946264  0.46261230  1
  C  C1043  1  0.77975323  0.95461133  0.36854511  1
  C  C1044  1  0.92291030  0.56206402  0.35430547  1
  Zn  Zn1045  1  0.76003395  0.82955802  0.48331397  1
  O  O1046  1  0.79470122  0.51238019  0.25842808  1
  H  H1047  1  0.77045955  0.90377017  0.37446746  1
  O  O1048  1  0.82499693  0.87846029  0.43633255  1
  C  C1049  1  0.98990791  0.78361599  0.47879902  1
  O  O1050  1  0.89092483  0.94749632  0.46815941  1
  H  H1051  1  0.80649628  0.52027067  0.28990770  1
  C  C1052  1  0.82848855  0.69819306  0.40317855  1
  H  H1053  1  0.83627529  0.67488725  0.26216477  1
  C  C1054  1  0.85612691  0.67023074  0.44368860  1
  H  H1055  1  0.92933297  0.67354951  0.49301178  1
  H  H1056  1  0.85698686  0.91219364  0.60329092  1
  C  C1057  1  0.86453262  0.64172331  0.68073392  1
  H  H1058  1  0.90820896  0.65476457  0.66242808  1
  C  C1059  1  0.90916062  0.91716809  0.61196020  1
  H  H1060  1  0.94564285  0.93488096  0.54281532  1
  C  C1061  1  0.83543341  0.57896241  0.67087075  1
  O  O1062  1  0.82906202  0.69302053  0.69477952  1
  C  C1063  1  0.82198376  0.72974618  0.73145085  1
  C  C1064  1  0.87214767  0.89129677  0.69507644  1
  O  O1065  1  0.81622169  0.89116532  0.68121556  1
  C  C1066  1  0.95941645  0.92771026  0.58007594  1
  C  C1067  1  0.92496236  0.90987242  0.65854823  1
  H  H1068  1  0.86573450  0.78451403  0.67344939  1
  C  C1069  1  0.82670979  0.75063458  0.67801486  1
  O  O1070  1  0.85094437  0.83936915  0.54685082  1
  C  C1071  1  0.85792472  0.66929402  0.73390380  1
  H  H1072  1  0.96643535  0.77106454  0.70484744  1
  O  O1073  1  0.88843074  0.87432875  0.73521240  1
  H  H1074  1  0.95528238  0.73882304  0.58380895  1
  H  H1075  1  0.91543051  0.53543294  0.63086400  1
  H  H1076  1  0.87516798  0.80008132  0.54074638  1
  C  C1077  1  0.98342065  0.76583540  0.60873252  1
  C  C1078  1  0.86731786  0.53104228  0.64550501  1
  C  C1079  1  0.99831104  0.73158929  0.69299730  1
  H  H1080  1  0.76947984  0.82997562  0.58776429  1
  H  H1081  1  0.95285660  0.80108276  0.62637144  1
  C  C1082  1  0.98978156  0.91088553  0.67283085  1
  H  H1083  1  0.85197980  0.85798235  0.51530597  1
  H  H1084  1  0.99771155  0.90457913  0.70926231  1
  H  H1085  1  0.78147850  0.76992667  0.66053407  1
  C  C1086  1  0.76804326  0.57235744  0.68433375  1
  H  H1087  1  0.79981858  0.58045501  0.55735760  1
  O  O1088  1  0.81538705  0.61255669  0.53661127  1
  H  H1089  1  0.79485771  0.64952707  0.54915373  1
  H  H1090  1  0.75217846  0.84260878  0.72799628  1
  H  H1091  1  0.80851548  0.84813168  0.77474822  1
  H  H1092  1  0.75750429  0.74632295  0.83597349  1
  H  H1093  1  0.84165496  0.63882836  0.76218259  1
  C  C1094  1  0.76121663  0.82586986  0.76458825  1
  O  O1095  1  0.99020723  0.98581718  0.76151652  1
  H  H1096  1  0.91796402  0.56997950  0.77238032  1
  C  C1097  1  0.76002838  0.65408171  0.80969676  1
  H  H1098  1  0.84186340  0.51753224  0.78223660  1
  C  C1099  1  0.76572737  0.75393338  0.76257149  1
  H  H1100  1  0.86348179  0.86968649  0.84970238  1
  H  H1101  1  0.79415132  0.54265201  0.84463375  1
  O  O1102  1  0.99196179  0.88302160  0.90242208  1
  H  H1103  1  0.86142537  0.51991043  0.90654606  1
  C  C1104  1  0.98990531  0.87121902  0.85950618  1
  H  H1105  1  0.92142640  0.59342664  0.83528204  1
  C  C1106  1  0.89332889  0.67421535  0.90412470  1
  C  C1107  1  0.81372611  0.64489713  0.84554993  1
  Zn  Zn1108  1  0.90805701  0.89879311  0.93677450  1
  O  O1109  1  0.94913735  0.60004623  0.95203336  1
  H  H1110  1  0.84322358  0.74218010  0.85951375  1
  C  C1111  1  0.86551314  0.56844778  0.89720401  1
  H  H1112  1  0.91251166  0.71559994  0.92432462  1
  O  O1113  1  0.93459197  0.87082664  0.83705031  1
  H  H1114  1  0.97504725  0.77512281  0.82441642  1
  O  O1115  1  0.88893264  0.80096451  0.96440557  1
  Zn  Zn1116  1  0.89727867  0.95005481  0.79051635  1
  C  C1117  1  0.83511583  0.79947894  0.98490419  1
  C  C1118  1  0.95477948  0.74310036  0.79765769  1
  O  O1119  1  0.80014048  0.94803162  0.81865040  1
  C  C1120  1  0.78064994  0.76396627  0.96881504  1
  C  C1121  1  0.94548446  0.56502121  0.80569217  1
  O  O1122  1  0.81466496  0.86831858  0.86971564  1
  C  C1123  1  0.84711643  0.69062509  0.86963355  1
  H  H1124  1  0.99130249  0.62532799  0.94342859  1
  H  H1125  1  0.78838992  0.73580857  0.93883737  1
  C  C1126  1  0.82117170  0.58230632  0.86187683  1
  C  C1127  1  0.90713043  0.61210007  0.91698699  1
  H  H1128  1  0.93016478  0.77185281  0.76975402  1
  H  H1129  1  0.91671444  0.71120156  0.81157373  1
  C  C1130  1  0.77953754  0.91263371  0.84966197  1
  H  H1131  1  0.99586251  0.58734001  0.80081181  1
  C  C1132  1  0.85422694  0.95097579  0.98484135  1
  H  H1133  1  0.97773806  0.51512510  0.99976988  1
  O  O1134  1  0.79898902  0.96524437  0.97532477  1
  H  H1135  1  0.99377805  0.81161431  0.99971768  1
