# generated using pymatgen
data_Zn4H36C60N6O19
_symmetry_space_group_name_H-M   'P 1'
_cell_length_a   26.73490452
_cell_length_b   23.59549302
_cell_length_c   19.91503450
_cell_angle_alpha   90.00000000
_cell_angle_beta   90.00000000
_cell_angle_gamma   90.00000000
_symmetry_Int_Tables_number   1
_chemical_formula_structural   Zn4H36C60N6O19
_chemical_formula_sum   'Zn32 H288 C480 N48 O152'
_cell_volume   12562.86684474
_cell_formula_units_Z   8
loop_
 _symmetry_equiv_pos_site_id
 _symmetry_equiv_pos_as_xyz
  1  'x, y, z'
loop_
 _atom_site_type_symbol
 _atom_site_label
 _atom_site_symmetry_multiplicity
 _atom_site_fract_x
 _atom_site_fract_y
 _atom_site_fract_z
 _atom_site_occupancy
  C  C0  1  0.08325545  0.17952950  0.18638651  1
  C  C1  1  0.11453607  0.15073823  0.22828873  1
  C  C2  1  0.12292085  0.16937908  0.29574379  1
  H  H3  1  0.13753980  0.11394088  0.20765385  1
  O  O4  1  0.18205227  0.09488470  0.32077824  1
  C  C5  1  0.16093031  0.13788894  0.33761177  1
  H  H6  1  0.08065049  0.16962589  0.13416921  1
  O  O7  1  0.16676198  0.16277170  0.39398570  1
  O  O8  1  0.14155524  0.05425070  0.45448772  1
  C  C9  1  0.03334876  0.15654285  0.46559783  1
  C  C10  1  0.09407258  0.21306210  0.32158720  1
  H  H11  1  0.09707664  0.04534124  0.14538493  1
  H  H12  1  0.20633972  0.16668271  0.11350607  1
  N  N13  1  0.21503656  0.14783066  0.06689312  1
  H  H14  1  0.10682481  0.04639799  0.33922131  1
  C  C15  1  0.05517592  0.22740772  0.20983695  1
  H  H16  1  0.17553618  0.04911513  0.09762265  1
  Zn  Zn17  1  0.20040845  0.01480558  0.38725177  1
  C  C18  1  0.15463424  0.07018556  0.05734622  1
  C  C19  1  0.17205683  0.12524525  0.03505601  1
  H  H20  1  0.17390777  0.02293144  0.21434983  1
  C  C21  1  0.10428130  0.02566255  0.47422524  1
  C  C22  1  0.07140317  0.02664492  0.35780359  1
  H  H23  1  0.07905980  0.23001964  0.08232912  1
  O  O24  1  0.23950227  0.07141142  0.47532368  1
  C  C25  1  0.06260823  0.01379500  0.42604631  1
  C  C26  1  0.11314207  0.04523919  0.02902139  1
  O  O27  1  0.23734762  0.22772047  0.24415672  1
  H  H28  1  0.05490321  0.11760684  0.47150153  1
  H  H29  1  0.10402982  0.00107314  0.03701329  1
  C  C30  1  0.00248484  0.15822438  0.41090132  1
  O  O31  1  0.00958744  0.17736146  0.04128518  1
  H  H32  1  0.01155487  0.22879120  0.12490531  1
  H  H33  1  0.00850974  0.00586513  0.10564072  1
  C  C34  1  0.10064950  0.00418548  0.17054702  1
  C  C35  1  0.03224595  0.01454401  0.31354013  1
  H  H36  1  0.03817242  0.03058054  0.26235680  1
  H  H37  1  0.24156322  0.13423398  0.38794471  1
  C  C38  1  0.24993658  0.10542848  0.09156956  1
  C  C39  1  0.05806320  0.23848993  0.27971195  1
  H  H40  1  0.09852244  0.22954011  0.37085659  1
  C  C41  1  0.04204403  0.20909911  0.49893445  1
  C  C42  1  0.41048741  0.14566504  0.04006868  1
  H  H43  1  0.45745847  0.02302499  0.23496195  1
  C  C44  1  0.47687816  0.19462949  0.27119649  1
  C  C45  1  0.38917740  0.14661578  0.38619042  1
  C  C46  1  0.36718801  0.11213618  0.43256968  1
  C  C47  1  0.49340500  0.11709992  0.05899124  1
  C  C48  1  0.46412150  0.19299819  0.12557536  1
  H  H49  1  0.28352984  0.19100624  0.29855874  1
  O  O50  1  0.25491558  0.08951292  0.14703735  1
  H  H51  1  0.37263553  0.14234255  0.01798922  1
  N  N52  1  0.38171715  0.19270622  0.27469336  1
  H  H53  1  0.30757511  0.01819352  0.07116263  1
  C  C54  1  0.43103596  0.19185364  0.27785643  1
  C  C55  1  0.30554238  0.16931365  0.33908477  1
  Zn  Zn56  1  0.34534842  0.22179286  0.19744912  1
  C  C57  1  0.28325151  0.13375225  0.38479260  1
  N  N58  1  0.37989848  0.22737761  0.10565068  1
  C  C59  1  0.28277084  0.09724897  0.02677670  1
  H  H60  1  0.42954682  0.15465442  0.38762276  1
  C  C61  1  0.30973798  0.04684686  0.02659109  1
  H  H62  1  0.34519659  0.21664135  0.08675628  1
  C  C63  1  0.44690058  0.10727048  0.02498676  1
  H  H64  1  0.46593742  0.22718987  0.16352934  1
  C  C65  1  0.35898435  0.17140241  0.33259052  1
  C  C66  1  0.41744891  0.18700387  0.09141202  1
  H  H67  1  0.39080891  0.08818262  0.47147288  1
  C  C68  1  0.28723986  0.07140990  0.48213602  1
  C  C69  1  0.31412339  0.10636541  0.43249048  1
  Zn  Zn70  1  0.17421375  0.18758954  0.73953834  1
  N  N71  1  0.16007884  0.13810324  0.81829843  1
  N  N72  1  0.18689958  0.17945746  0.63783900  1
  O  O73  1  0.10686897  0.16636429  0.56202266  1
  H  H74  1  0.15815103  0.15474036  0.62596105  1
  H  H75  1  0.19321790  0.14311124  0.83994703  1
  C  C76  1  0.07808713  0.20856652  0.55624260  1
  C  C77  1  0.12768850  0.09478337  0.82494761  1
  C  C78  1  0.20776133  0.05776127  0.88227822  1
  H  H79  1  0.21577761  0.09897196  0.90113905  1
  O  O80  1  0.08452795  0.08690208  0.80487360  1
  C  C81  1  0.16340097  0.04876809  0.84562058  1
  C  C82  1  0.03689815  0.05126856  0.95886362  1
  H  H83  1  0.08617996  0.15846265  0.91112512  1
  C  C84  1  0.10287452  0.13367270  0.95516902  1
  C  C85  1  0.08499899  0.07806058  0.98068886  1
  C  C86  1  0.24008717  0.01193411  0.89320995  1
  O  O87  1  0.02094472  0.16530185  0.72346244  1
  Zn  Zn88  1  0.01620795  0.10497566  0.87950028  1
  C  C89  1  0.22310766  0.19826855  0.59412695  1
  O  O90  1  0.22886011  0.18415286  0.53563680  1
  H  H91  1  0.20803759  0.03691889  0.73425026  1
  H  H92  1  0.15941831  0.19816105  0.97427075  1
  C  C93  1  0.14507569  0.15619069  0.98617432  1
  O  O94  1  0.10063738  0.01123788  0.53410962  1
  C  C95  1  0.24925391  0.04233588  0.73188679  1
  Zn  Zn96  1  0.16821133  0.13576363  0.50173995  1
  O  O97  1  0.01550315  0.00762483  0.96360012  1
  O  O98  1  0.07845654  0.24885077  0.59763064  1
  Zn  Zn99  1  0.03659839  0.24518433  0.69161444  1
  C  C100  1  0.01164833  0.20130017  0.98637719  1
  H  H101  1  0.31693172  0.17991988  0.65488378  1
  H  H102  1  0.49480290  0.24310705  0.78419905  1
  C  C103  1  0.31406182  0.15408925  0.85357583  1
  H  H104  1  0.44040822  0.07316591  0.98637579  1
  C  C105  1  0.25231491  0.24074094  0.63895547  1
  C  C106  1  0.34365092  0.03151063  0.97324022  1
  C  C107  1  0.34226120  0.06528731  0.91407430  1
  H  H108  1  0.27255514  0.01761400  0.92661383  1
  H  H109  1  0.25781098  0.16773705  0.97344366  1
  H  H110  1  0.25080936  0.10657497  0.81103676  1
  O  O111  1  0.39957174  0.20837765  0.89632181  1
  H  H112  1  0.36721816  0.05616646  0.86852483  1
  C  C113  1  0.33018924  0.01368809  0.67737790  1
  C  C114  1  0.45848471  0.15930835  0.71414973  1
  O  O115  1  0.42714842  0.18035979  0.75412523  1
  C  C116  1  0.35129162  0.05611965  0.71707495  1
  N  N117  1  0.34856963  0.12988795  0.80770431  1
  H  H118  1  0.37727859  0.16113170  0.78678894  1
  C  C119  1  0.31387362  0.11476304  0.91644301  1
  O  O120  1  0.28748916  0.19281830  0.84746286  1
  C  C121  1  0.32515900  0.08707941  0.76934529  1
  C  C122  1  0.27791108  0.00998463  0.68672644  1
  C  C123  1  0.43033856  0.23190863  0.92815700  1
  C  C124  1  0.28426919  0.13114823  0.96900569  1
  O  O125  1  0.45169983  0.11541522  0.68166762  1
  O  O126  1  0.30954993  0.03513755  0.51480163  1
  H  H127  1  0.39046974  0.06603566  0.70705976  1
  C  C128  1  0.27196602  0.08107517  0.77436299  1
  C  C129  1  0.30058286  0.22371245  0.66209607  1
  H  H130  1  0.35635422  0.24426052  0.73239517  1
  C  C131  1  0.04128568  0.41558008  0.26065333  1
  C  C132  1  0.07936329  0.45853901  0.23637207  1
  N  N133  1  0.09597646  0.43652002  0.17273130  1
  C  C134  1  0.12894777  0.34782545  0.23324829  1
  H  H135  1  0.10854263  0.46981895  0.14201548  1
  C  C136  1  0.16691848  0.38355844  0.12824771  1
  C  C137  1  0.12855438  0.38799196  0.17847024  1
  H  H138  1  0.09972900  0.35561021  0.27339408  1
  H  H139  1  0.05446582  0.36359892  0.17339835  1
  C  C140  1  0.20301516  0.34141288  0.12968819  1
  H  H141  1  0.02851102  0.45886922  0.35785536  1
  H  H142  1  0.17062879  0.41280422  0.08526999  1
  H  H143  1  0.04119716  0.34007781  0.40586839  1
  C  C144  1  0.06070981  0.36717538  0.43911737  1
  C  C145  1  0.16274317  0.30286667  0.23461007  1
  C  C146  1  0.19971779  0.30304492  0.18326076  1
  H  H147  1  0.14542034  0.30344777  0.07621145  1
  H  H148  1  0.12700110  0.31429850  0.43637385  1
  C  C149  1  0.10971865  0.35318742  0.45951643  1
  C  C150  1  0.03591072  0.41241084  0.47061401  1
  C  C151  1  0.11958147  0.29800530  0.03297368  1
  H  H152  1  0.06022694  0.38072896  0.03439010  1
  C  C153  1  0.23075954  0.46806427  0.14517800  1
  C  C154  1  0.03281930  0.36819106  0.21912483  1
  C  C155  1  0.01865998  0.42382663  0.32311039  1
  H  H156  1  0.03364528  0.27152219  0.30207813  1
  N  N157  1  0.02252812  0.25575099  0.16572345  1
  H  H158  1  0.23321789  0.33385291  0.09109795  1
  H  H159  1  0.16455879  0.27232159  0.27824669  1
  C  C160  1  0.24051751  0.25913825  0.19609551  1
  H  H161  1  0.23004211  0.46460824  0.20192362  1
  O  O162  1  0.24270148  0.44670685  0.35260380  1
  C  C163  1  0.24028154  0.47492260  0.00259136  1
  C  C164  1  0.05100368  0.42060969  0.00786336  1
  C  C165  1  0.01542766  0.25926266  0.48875734  1
  C  C166  1  0.00291650  0.44379523  0.02659047  1
  C  C167  1  0.08270135  0.25753230  0.03782614  1
  C  C168  1  0.24831638  0.49170398  0.33066512  1
  H  H169  1  0.29787725  0.35981629  0.25410317  1
  N  N170  1  0.30247743  0.31824427  0.48203757  1
  C  C171  1  0.29568508  0.39074255  0.00412760  1
  H  H172  1  0.45673026  0.44553844  0.10922768  1
  H  H173  1  0.43943700  0.31026089  0.34741226  1
  H  H174  1  0.39872812  0.29905836  0.45976556  1
  O  O175  1  0.44013135  0.33530598  0.21675774  1
  C  C176  1  0.39586942  0.34189404  0.22452576  1
  H  H177  1  0.28862250  0.40466026  0.14055259  1
  O  O178  1  0.28040942  0.26184368  0.16275103  1
  C  C179  1  0.29578807  0.33910975  0.35969402  1
  H  H180  1  0.39390819  0.36532733  0.13369912  1
  C  C181  1  0.43331987  0.48932414  0.01373016  1
  O  O182  1  0.43289250  0.38759316  0.01111269  1
  C  C183  1  0.26425933  0.43227505  0.11084244  1
  C  C184  1  0.26695254  0.43393508  0.04017503  1
  O  O185  1  0.31888954  0.35474314  0.04091456  1
  C  C186  1  0.37130673  0.33186272  0.29151550  1
  H  H187  1  0.26416072  0.30550059  0.48469751  1
  H  H188  1  0.25742643  0.34838379  0.36533567  1
  C  C189  1  0.44389056  0.48712165  0.08627499  1
  Zn  Zn190  1  0.38970089  0.31249718  0.04371396  1
  C  C191  1  0.37651531  0.31535305  0.41232033  1
  O  O192  1  0.36728309  0.36402878  0.17117971  1
  C  C193  1  0.31925017  0.34239985  0.29840381  1
  C  C194  1  0.39866240  0.31749919  0.35003035  1
  C  C195  1  0.32379810  0.32090115  0.41715816  1
  C  C196  1  0.18463924  0.43900745  0.75368811  1
  C  C197  1  0.17638108  0.38331699  0.77271380  1
  C  C198  1  0.13084549  0.35243712  0.76637526  1
  H  H199  1  0.20751493  0.35840973  0.79197680  1
  C  C200  1  0.09349147  0.44086728  0.72796167  1
  C  C201  1  0.08841816  0.38500539  0.74884964  1
  C  C202  1  0.14274531  0.46570117  0.72380985  1
  H  H203  1  0.05962900  0.46506349  0.71475149  1
  H  H204  1  0.05289873  0.36309594  0.74272217  1
  H  H205  1  0.22012645  0.46245324  0.76552191  1
  H  H206  1  0.08725258  0.36147349  0.88190370  1
  C  C207  1  0.08605628  0.33124622  0.92648297  1
  O  O208  1  0.15810310  0.46080830  0.90349507  1
  C  C209  1  0.13644127  0.43141737  0.94222085  1
  C  C210  1  0.12892692  0.29073192  0.77741232  1
  C  C211  1  0.08152794  0.44508528  0.96130202  1
  H  H212  1  0.12816631  0.46346656  0.57254594  1
  H  H213  1  0.19553850  0.30654405  0.62780707  1
  O  O214  1  0.21010732  0.41017458  0.56248074  1
  H  H215  1  0.04335490  0.47788136  0.54966134  1
  C  C216  1  0.11042538  0.43330939  0.53597933  1
  O  O217  1  0.08318829  0.27126605  0.77823605  1
  O  O218  1  0.16130726  0.25666143  0.79981134  1
  C  C219  1  0.04977024  0.28726397  0.92926982  1
  H  H220  1  0.19287376  0.37807352  0.97193816  1
  C  C221  1  0.12225574  0.33548478  0.97540237  1
  C  C222  1  0.18804684  0.37403233  0.52625829  1
  N  N223  1  0.15523745  0.38404977  0.97529245  1
  C  C224  1  0.06408929  0.49341048  0.92760413  1
  C  C225  1  0.06136858  0.44577125  0.51871900  1
  H  H226  1  0.02203165  0.29933070  0.51523008  1
  C  C227  1  0.22991562  0.29428858  0.65104479  1
  H  H228  1  0.24178806  0.37469141  0.69062278  1
  H  H229  1  0.24546966  0.47828675  0.94779700  1
  H  H230  1  0.02344331  0.28353071  0.88606707  1
  O  O231  1  0.20910640  0.33273986  0.50142540  1
  C  C232  1  0.05003275  0.25001574  0.98386582  1
  C  C233  1  0.13510242  0.38622127  0.50728358  1
  C  C234  1  0.26034264  0.33313985  0.68678452  1
  C  C235  1  0.32417219  0.26179649  0.70616221  1
  C  C236  1  0.43488333  0.49301600  0.72488888  1
  C  C237  1  0.30568805  0.31725511  0.71473390  1
  H  H238  1  0.41448567  0.47996873  0.51406539  1
  H  H239  1  0.45526254  0.36955119  0.64451316  1
  C  C240  1  0.37041335  0.37898344  0.58017854  1
  C  C241  1  0.48087536  0.28680497  0.93172257  1
  Zn  Zn242  1  0.34500681  0.43224238  0.87331519  1
  H  H243  1  0.32499056  0.48026877  0.63475631  1
  O  O244  1  0.31251344  0.40318799  0.77672433  1
  C  C245  1  0.47390356  0.33118028  0.87880173  1
  C  C246  1  0.33351509  0.35588064  0.76388183  1
  O  O247  1  0.38056310  0.33271997  0.56129095  1
  C  C248  1  0.46097463  0.44526749  0.69832916  1
  O  O249  1  0.29360936  0.38765509  0.94136662  1
  N  N250  1  0.44205814  0.26683355  0.97755298  1
  O  O251  1  0.37034113  0.34066144  0.79695205  1
  H  H252  1  0.43444898  0.34459168  0.86109233  1
  C  C253  1  0.43508341  0.40746035  0.65930442  1
  O  O254  1  0.41732999  0.43595311  0.91861414  1
  C  C255  1  0.42963205  0.43339885  0.97977965  1
  Zn  Zn256  1  0.30512952  0.41742309  0.54460064  1
  C  C257  1  0.36338182  0.47170912  0.65168150  1
  C  C258  1  0.38914463  0.42152295  0.62781921  1
  H  H259  1  0.32073578  0.30178627  0.52531176  1
  H  H260  1  0.06198214  0.57917440  0.28408427  1
  C  C261  1  0.09865601  0.58930604  0.41196061  1
  C  C262  1  0.14452096  0.59521040  0.36730300  1
  N  N263  1  0.07049993  0.63868555  0.40730608  1
  H  H264  1  0.18116294  0.69920102  0.06495465  1
  C  C265  1  0.16337814  0.59605420  0.11614692  1
  O  O266  1  0.12259931  0.61090455  0.10358779  1
  C  C267  1  0.17510111  0.54839311  0.36452982  1
  C  C268  1  0.15758442  0.64755983  0.33709828  1
  C  C269  1  0.19946006  0.64761966  0.29617085  1
  H  H270  1  0.13412481  0.68485517  0.34616993  1
  C  C271  1  0.21240075  0.62726468  0.11122616  1
  C  C272  1  0.21865316  0.68067980  0.08151890  1
  C  C273  1  0.19947210  0.68014643  0.47322699  1
  H  H274  1  0.16401184  0.70498259  0.47501263  1
  C  C275  1  0.23377956  0.60171297  0.29267794  1
  C  C276  1  0.22039598  0.54763391  0.32609000  1
  N  N277  1  0.17444421  0.54383730  0.14826440  1
  C  C278  1  0.20955815  0.70167552  0.25543193  1
  H  H279  1  0.13638192  0.70068249  0.25873826  1
  C  C280  1  0.04707556  0.62518706  0.28487684  1
  C  C281  1  0.05176750  0.65786863  0.34188165  1
  O  O282  1  0.09256607  0.55065551  0.44889415  1
  N  N283  1  0.16490568  0.72642646  0.24214827  1
  H  H284  1  0.14724845  0.52481372  0.17466650  1
  H  H285  1  0.18264075  0.54239524  0.00588937  1
  C  C286  1  0.02477623  0.64847367  0.22854139  1
  H  H287  1  0.04547810  0.64414975  0.44769565  1
  H  H288  1  0.01935621  0.62351711  0.18189421  1
  O  O289  1  0.08183695  0.50460708  0.25779049  1
  C  C290  1  0.24285813  0.70242298  0.44587631  1
  H  H291  1  0.07721494  0.73559541  0.17887766  1
  H  H292  1  0.03628309  0.74200353  0.38784613  1
  C  C293  1  0.03344794  0.71454474  0.34390996  1
  C  C294  1  0.20788860  0.51355694  0.03411833  1
  C  C295  1  0.01627032  0.73880902  0.28646938  1
  C  C296  1  0.00953493  0.70533483  0.22976355  1
  H  H297  1  0.16663010  0.50751130  0.39039513  1
  C  C298  1  0.20456933  0.50729713  0.10534286  1
  C  C299  1  0.24921386  0.59572627  0.49367265  1
  C  C300  1  0.20368054  0.62549922  0.49879079  1
  C  C301  1  0.45458943  0.61239314  0.33203909  1
  O  O302  1  0.25296483  0.71752130  0.24246713  1
  H  H303  1  0.32879480  0.59471364  0.45982137  1
  C  C304  1  0.40811654  0.67849840  0.49668941  1
  H  H305  1  0.26089533  0.56033436  0.15479967  1
  N  N306  1  0.42247096  0.62300244  0.49571646  1
  Zn  Zn307  1  0.46743506  0.56641742  0.05459035  1
  O  O308  1  0.39228507  0.63870319  0.00157513  1
  C  C309  1  0.48256711  0.69926191  0.26967467  1
  H  H310  1  0.42515360  0.73434787  0.07192374  1
  C  C311  1  0.43406827  0.71959755  0.27097314  1
  H  H312  1  0.32307279  0.69592628  0.41561212  1
  H  H313  1  0.31856333  0.68073865  0.32544066  1
  H  H314  1  0.37840078  0.61070957  0.36507343  1
  C  C315  1  0.42500276  0.53693923  0.13245857  1
  H  H316  1  0.42497352  0.52958572  0.18579351  1
  C  C317  1  0.43694999  0.71754936  0.45663484  1
  H  H318  1  0.26652111  0.60667192  0.25868790  1
  C  C319  1  0.26289080  0.71095444  0.07410129  1
  N  N320  1  0.34728666  0.70156812  0.30341879  1
  C  C321  1  0.39199927  0.59059540  0.02464315  1
  C  C322  1  0.29404732  0.62016084  0.46352705  1
  C  C323  1  0.34837580  0.60448422  0.16840350  1
  H  H324  1  0.41881678  0.64169505  0.19169886  1
  C  C325  1  0.25800996  0.60346651  0.13511550  1
  C  C326  1  0.29005749  0.67322497  0.44012028  1
  H  H327  1  0.47025195  0.57410176  0.35762423  1
  C  C328  1  0.30647044  0.68616887  0.10152459  1
  C  C329  1  0.39649782  0.68608499  0.30273339  1
  N  N330  1  0.39481766  0.63318582  0.15127787  1
  Zn  Zn331  1  0.30211222  0.51794698  0.27399801  1
  O  O332  1  0.34831571  0.57417179  0.21915460  1
  C  C333  1  0.46405450  0.59137444  0.49243893  1
  H  H334  1  0.46530428  0.69764653  0.42328422  1
  C  C335  1  0.40790761  0.63395006  0.33863553  1
  C  C336  1  0.39683639  0.58442577  0.10509043  1
  H  H337  1  0.34292680  0.70832530  0.09851100  1
  C  C338  1  0.48953998  0.64343949  0.29024455  1
  C  C339  1  0.30208268  0.63365181  0.13372152  1
  C  C340  1  0.18122250  0.63456987  0.66814994  1
  C  C341  1  0.10522188  0.68882962  0.77525391  1
  H  H342  1  0.12927469  0.69851008  0.73009941  1
  C  C343  1  0.18512926  0.69495154  0.64380796  1
  C  C344  1  0.13495055  0.60823416  0.64903359  1
  C  C345  1  0.05010373  0.67053431  0.89187370  1
  C  C346  1  0.21786305  0.62501703  0.87456099  1
  H  H347  1  0.06409446  0.60992584  0.59413233  1
  C  C348  1  0.09816858  0.63306578  0.61056892  1
  C  C349  1  0.05066969  0.62867929  0.83909928  1
  C  C350  1  0.10291550  0.69340232  0.59625784  1
  H  H351  1  0.07674089  0.60568120  0.73818623  1
  C  C352  1  0.07857752  0.63849694  0.77839417  1
  C  C353  1  0.14704996  0.72446913  0.61184779  1
  C  C354  1  0.20619669  0.67848970  0.89627671  1
  H  H355  1  0.19178786  0.60144861  0.83977394  1
  H  H356  1  0.03208365  0.66134804  0.93894451  1
  O  O357  1  0.21143410  0.60658515  0.70124979  1
  H  H358  1  0.16909556  0.69553795  0.88361809  1
  N  N359  1  0.02960840  0.57371363  0.84834029  1
  H  H360  1  0.18950112  0.53846288  0.71052074  1
  O  O361  1  0.07789008  0.53364296  0.63848323  1
  C  C362  1  0.11811815  0.54829085  0.66109129  1
  N  N363  1  0.15614292  0.51955537  0.69332189  1
  C  C364  1  0.07584191  0.72203756  0.88537051  1
  C  C365  1  0.01889459  0.51927954  0.94775060  1
  H  H366  1  0.01136680  0.55521532  0.80344417  1
  C  C367  1  0.23080377  0.72855560  0.64750433  1
  C  C368  1  0.05891661  0.71273661  0.55736507  1
  C  C369  1  0.10231537  0.73080887  0.82577737  1
  C  C370  1  0.00348229  0.57160340  0.91196970  1
  H  H371  1  0.17076233  0.60472052  0.52556026  1
  H  H372  1  0.21132588  0.52094760  0.53364091  1
  C  C373  1  0.24336119  0.70620283  0.94256012  1
  H  H374  1  0.08603421  0.51234722  0.88414177  1
  N  N375  1  0.24615911  0.54194210  0.52342266  1
  O  O376  1  0.02288971  0.71971199  0.52732621  1
  H  H377  1  0.24901871  0.73089989  0.78969441  1
  C  C378  1  0.33843394  0.50288539  0.52191447  1
  C  C379  1  0.38822384  0.51553762  0.51027740  1
  O  O380  1  0.25654074  0.51752744  0.82736540  1
  O  O381  1  0.31759676  0.57631988  0.68648620  1
  C  C382  1  0.29050380  0.68038381  0.95588645  1
  H  H383  1  0.41762317  0.54244671  0.92761029  1
  N  N384  1  0.38742718  0.58999024  0.75518081  1
  C  C385  1  0.30412032  0.72042417  0.71287932  1
  C  C386  1  0.38721581  0.50672471  0.69866638  1
  C  C387  1  0.38873195  0.74189712  0.74726243  1
  H  H388  1  0.26234182  0.65312593  0.67997720  1
  C  C389  1  0.46038115  0.64479555  0.77742711  1
  H  H390  1  0.42892294  0.74671291  0.73355659  1
  C  C391  1  0.43163745  0.61748067  0.72606265  1
  H  H392  1  0.33576737  0.60119995  0.93919291  1
  H  H393  1  0.36532415  0.61632840  0.77994595  1
  C  C394  1  0.49738634  0.68199046  0.75837458  1
  C  C395  1  0.48933538  0.65380317  0.64126032  1
  C  C396  1  0.44951456  0.61816911  0.65836825  1
  C  C397  1  0.28262002  0.54445391  0.86431465  1
  H  H398  1  0.43068303  0.58684232  0.62549550  1
  C  C399  1  0.30168294  0.62711525  0.92914687  1
  H  H400  1  0.31871532  0.69604755  0.99131827  1
  H  H401  1  0.45148333  0.51860052  0.76736059  1
  H  H402  1  0.37010169  0.70839070  0.64761034  1
  H  H403  1  0.44691752  0.63883496  0.83118663  1
  H  H404  1  0.33808368  0.67275316  0.55880300  1
  C  C405  1  0.26614498  0.60085354  0.88968106  1
  N  N406  1  0.27214948  0.69380268  0.66344590  1
  C  C407  1  0.36572813  0.70092716  0.53330479  1
  O  O408  1  0.32456603  0.52114874  0.88770701  1
  C  C409  1  0.35665900  0.56172166  0.70735582  1
  C  C410  1  0.35583823  0.72595415  0.69822654  1
  C  C411  1  0.28920096  0.73549320  0.77838530  1
  C  C412  1  0.28497084  0.50768451  0.52679299  1
  C  C413  1  0.41830630  0.54097659  0.98174253  1
  C  C414  1  0.41164654  0.56965650  0.50166877  1
  Zn  Zn415  1  0.18630141  0.87431033  0.41641903  1
  H  H416  1  0.11568274  0.85478010  0.25598877  1
  C  C417  1  0.11004015  0.89801772  0.23525675  1
  C  C418  1  0.06401901  0.90991951  0.20031136  1
  C  C419  1  0.13907342  0.83615301  0.08474498  1
  O  O420  1  0.20134914  0.88962616  0.30921881  1
  C  C421  1  0.19871749  0.79043041  0.15307791  1
  C  C422  1  0.18889273  0.83179181  0.10568499  1
  H  H423  1  0.23648508  0.78030665  0.16939256  1
  C  C424  1  0.06007869  0.96346836  0.16936815  1
  H  H425  1  0.21850705  0.85559392  0.08486881  1
  O  O426  1  0.10634277  0.88322404  0.43230784  1
  C  C427  1  0.19364108  0.93549557  0.28060031  1
  C  C428  1  0.14767522  0.93771009  0.23554162  1
  O  O429  1  0.19908696  0.78609284  0.41090802  1
  H  H430  1  0.03133181  0.88068696  0.20240352  1
  O  O431  1  0.21848490  0.94596444  0.44289806  1
  C  C432  1  0.09900174  0.80437579  0.11196373  1
  H  H433  1  0.06100651  0.81152781  0.08882955  1
  O  O434  1  0.22345716  0.97595635  0.29289871  1
  C  C435  1  0.15942693  0.75900508  0.18432009  1
  C  C436  1  0.01594337  0.99384565  0.45114718  1
  C  C437  1  0.10801245  0.76386041  0.15926717  1
  H  H438  1  0.01812721  0.85821770  0.40433984  1
  C  C439  1  0.24050149  0.75956097  0.41213576  1
  C  C440  1  0.00999163  0.85301716  0.45833301  1
  C  C441  1  0.12203617  0.87928828  0.03225903  1
  C  C442  1  0.14348598  0.99310818  0.20627728  1
  N  N443  1  0.01296182  0.97458676  0.14040602  1
  H  H444  1  0.00737443  0.78690104  0.28809156  1
  C  C445  1  0.09770230  0.86843711  0.49266996  1
  O  O446  1  0.07764982  0.89352017  0.02719890  1
  C  C447  1  0.36009994  0.87399299  0.22186948  1
  H  H448  1  0.28819717  0.93617242  0.38726600  1
  Zn  Zn449  1  0.37249641  0.94271531  0.34893604  1
  O  O450  1  0.32047311  0.84571963  0.23070431  1
  C  C451  1  0.26516403  0.76500601  0.02966146  1
  C  C452  1  0.44824162  0.87327323  0.18781009  1
  C  C453  1  0.42991495  0.76986517  0.11124517  1
  O  O454  1  0.43682343  0.99623695  0.35454630  1
  C  C455  1  0.49150337  0.99733031  0.23041667  1
  C  C456  1  0.39080968  0.79701123  0.14559407  1
  C  C457  1  0.48155592  0.97602693  0.35515745  1
  Zn  Zn458  1  0.31242359  0.77192838  0.28616916  1
  O  O459  1  0.36607103  0.92302555  0.24568822  1
  H  H460  1  0.42647600  0.76063370  0.24894006  1
  O  O461  1  0.28433034  0.80668771  0.05059406  1
  C  C462  1  0.42302426  0.77348137  0.45218606  1
  H  H463  1  0.45142796  0.91576573  0.20812268  1
  O  O464  1  0.27763911  0.78309805  0.38894358  1
  C  C465  1  0.48775318  0.84455116  0.15866224  1
  O  O466  1  0.45462753  0.91240296  0.02110222  1
  H  H467  1  0.38707013  0.97171769  0.03062545  1
  C  C468  1  0.35955940  0.84981784  0.46017204  1
  H  H469  1  0.35124289  0.78411693  0.13494394  1
  O  O470  1  0.38450008  0.87567460  0.41761898  1
  O  O471  1  0.31423638  0.96556152  0.40246644  1
  H  H472  1  0.44380513  0.80119468  0.41971641  1
  C  C473  1  0.47858311  0.79282054  0.12296857  1
  C  C474  1  0.40207566  0.84622637  0.18414757  1
  C  C475  1  0.37800225  0.79318114  0.47969042  1
  O  O476  1  0.32365046  0.86947191  0.49341839  1
  Zn  Zn477  1  0.28248870  0.95081116  0.49514561  1
  C  C478  1  0.05274752  0.93353884  0.69581869  1
  H  H479  1  0.17217089  0.90496940  0.82023470  1
  C  C480  1  0.17898625  0.94711648  0.83849072  1
  O  O481  1  0.09664959  0.91289354  0.68870474  1
  Zn  Zn482  1  0.13380518  0.94938936  0.60077050  1
  H  H483  1  0.06771958  0.83206152  0.61247634  1
  Zn  Zn484  1  0.19318792  0.81887786  0.93641009  1
  C  C485  1  0.22354063  0.95850189  0.87376180  1
  C  C486  1  0.02382097  0.85102214  0.76743045  1
  H  H487  1  0.06252438  0.83340120  0.76602149  1
  C  C488  1  0.03553285  0.83489738  0.57850741  1
  O  O489  1  0.12896365  0.82056578  0.87125719  1
  O  O490  1  0.14649236  0.80267889  0.76692782  1
  C  C491  1  0.12905058  0.78781387  0.81880566  1
  O  O492  1  0.15361246  0.89197787  0.98789102  1
  H  H493  1  0.14924472  0.77062701  0.60355012  1
  O  O494  1  0.13012157  0.87316059  0.53852751  1
  C  C495  1  0.01246470  0.90449096  0.73586437  1
  O  O496  1  0.23173355  0.78238817  0.63116751  1
  O  O497  1  0.04396868  0.97890207  0.66808931  1
  H  H498  1  0.01241175  0.98828504  0.50789910  1
  C  C499  1  0.04467990  0.85138479  0.51084939  1
  O  O500  1  0.20386497  0.96571690  0.65109951  1
  H  H501  1  0.11093596  0.99215114  0.80184492  1
  N  N502  1  0.23424762  0.75699323  0.97245051  1
  C  C503  1  0.14835561  0.99331719  0.82448216  1
  H  H504  1  0.07637120  0.75381563  0.92600274  1
  O  O505  1  0.24567062  0.85857237  0.87851127  1
  C  C506  1  0.25052217  0.96967307  0.64191266  1
  O  O507  1  0.27076111  0.93404189  0.60459343  1
  H  H508  1  0.26910140  0.79103261  0.64884890  1
  H  H509  1  0.38043182  0.99964608  0.83597666  1
  C  C510  1  0.41365077  0.97717334  0.85933342  1
  H  H511  1  0.31858915  0.77468691  0.54887488  1
  C  C512  1  0.35253708  0.75668050  0.52413197  1
  C  C513  1  0.25695717  0.90993534  0.89391707  1
  H  H514  1  0.34966570  0.98300676  0.64073531  1
  C  C515  1  0.37215064  0.75730733  0.81097782  1
  O  O516  1  0.45867054  0.76654591  0.84799170  1
  C  C517  1  0.47659349  0.92972034  0.76467631  1
  C  C518  1  0.45082348  0.93039421  0.96510515  1
  C  C519  1  0.45160690  0.95304433  0.82350400  1
  O  O520  1  0.48439380  0.92056622  0.70758773  1
  H  H521  1  0.30768810  0.76949502  0.87808410  1
  C  C522  1  0.49666150  0.77223928  0.89947012  1
  O  O523  1  0.29639817  0.92119316  0.92181021  1
  O  O524  1  0.39710078  0.77988662  0.92067312  1
  H  H525  1  0.47641439  0.76730774  0.94895553  1
  C  C526  1  0.38065554  0.98769316  0.98114771  1
  C  C527  1  0.32056158  0.75589445  0.82806442  1
  C  C528  1  0.41326625  0.96756582  0.93302976  1
  C  C529  1  0.40741311  0.76882210  0.86558304  1
  C  C530  1  0.63351022  0.06559331  0.26339503  1
  H  H531  1  0.54148107  0.16079303  0.13457366  1
  C  C532  1  0.67665443  0.04063312  0.23126758  1
  O  O533  1  0.60001805  0.08677032  0.29056425  1
  O  O534  1  0.58989617  0.09285619  0.06936884  1
  H  H535  1  0.66092947  0.10247694  0.06217500  1
  C  C536  1  0.68098207  0.01175857  0.16537165  1
  H  H537  1  0.64845077  0.00812723  0.13450907  1
  C  C538  1  0.62593447  0.10264611  0.02939619  1
  C  C539  1  0.53517118  0.08228529  0.04006090  1
  H  H540  1  0.55309904  0.16218715  0.26769402  1
  C  C541  1  0.52791618  0.19902673  0.26326957  1
  H  H542  1  0.59560641  0.23519920  0.37178981  1
  C  C543  1  0.70448472  0.20134329  0.21474629  1
  H  H544  1  0.72176917  0.16718185  0.08298251  1
  C  C545  1  0.71973849  0.04488146  0.27385471  1
  H  H546  1  0.71409365  0.05796999  0.32590426  1
  O  O547  1  0.69754435  0.20916403  0.27434420  1
  O  O548  1  0.67480365  0.22246818  0.17075374  1
  C  C549  1  0.74422272  0.00458479  0.02188572  1
  C  C550  1  0.63407791  0.17429530  0.48990101  1
  O  O551  1  0.59799280  0.15597496  0.49387269  1
  H  H552  1  0.50048263  0.01146257  0.12148808  1
  C  C553  1  0.50352614  0.15845684  0.11128044  1
  C  C554  1  0.74998455  0.17009070  0.19016775  1
  C  C555  1  0.76146068  0.01670198  0.25132485  1
  H  H556  1  0.79625781  0.10232022  0.04892235  1
  C  C557  1  0.83154147  0.10726007  0.14701515  1
  H  H558  1  0.95102612  0.22332471  0.29529438  1
  H  H559  1  0.86196825  0.21825456  0.41159484  1
  C  C560  1  0.86286061  0.05794412  0.46028623  1
  N  N561  1  0.93937344  0.20397128  0.33747132  1
  C  C562  1  0.97388507  0.20837016  0.39478623  1
  H  H563  1  0.78132070  0.16550365  0.29092981  1
  C  C564  1  0.89403503  0.07646429  0.40295587  1
  C  C565  1  0.78492050  0.15342063  0.23877437  1
  C  C566  1  0.75166557  0.15293121  0.12057468  1
  H  H567  1  0.91661043  0.04697121  0.37549222  1
  C  C568  1  0.86024034  0.17242750  0.42545228  1
  C  C569  1  0.92315329  0.14667212  0.32754042  1
  C  C570  1  0.89191574  0.13391256  0.38966286  1
  C  C571  1  0.83284996  0.15180909  0.47988689  1
  H  H572  1  0.85604712  0.10224066  0.25094230  1
  O  O573  1  0.93240485  0.11461996  0.28405934  1
  N  N574  1  0.90256719  0.03526582  0.12515348  1
  C  C575  1  0.82572676  0.12309751  0.21599987  1
  C  C576  1  0.79033527  0.11775894  0.10142334  1
  C  C577  1  0.86922205  0.06624709  0.12977103  1
  C  C578  1  0.83203737  0.09545762  0.49973852  1
  O  O579  1  0.79409989  0.24492987  0.48276147  1
  H  H580  1  0.99881711  0.12093909  0.37930555  1
  C  C581  1  0.80381301  0.00099355  0.29829610  1
  Zn  Zn582  1  0.95465117  0.00354984  0.19192492  1
  N  N583  1  0.68661804  0.14780183  0.72701883  1
  C  C584  1  0.72050032  0.14284978  0.94493570  1
  Zn  Zn585  1  0.68574145  0.14475230  0.83406125  1
  H  H586  1  0.65053256  0.15844483  0.72593611  1
  H  H587  1  0.63086548  0.11395990  0.62201512  1
  C  C588  1  0.65999228  0.08426060  0.64394782  1
  C  C589  1  0.69696873  0.09790345  0.68989074  1
  C  C590  1  0.66920561  0.13180386  0.92964264  1
  H  H591  1  0.59366754  0.10179849  0.92505124  1
  C  C592  1  0.54200840  0.16822354  0.65223654  1
  C  C593  1  0.65956972  0.02858300  0.61555505  1
  H  H594  1  0.63054426  0.01593681  0.57857484  1
  H  H595  1  0.53296579  0.12973640  0.62450114  1
  C  C596  1  0.52267571  0.23322536  0.74393243  1
  C  C597  1  0.73977820  0.06206096  0.70148149  1
  C  C598  1  0.73891252  0.00756476  0.67529163  1
  C  C599  1  0.58352342  0.20020772  0.64075702  1
  C  C600  1  0.62589583  0.11214984  0.95922091  1
  H  H601  1  0.61133447  0.19121542  0.59929971  1
  C  C602  1  0.51066487  0.18892556  0.70314359  1
  Zn  Zn603  1  0.70615003  0.23078871  0.70252664  1
  C  C604  1  0.59865437  0.24649911  0.68271959  1
  O  O605  1  0.53063857  0.04657691  0.99913257  1
  H  H606  1  0.54096819  0.24802635  0.99467141  1
  C  C607  1  0.80740471  0.20459256  0.51469849  1
  O  O608  1  0.76153231  0.14498348  0.96864449  1
  C  C609  1  0.97934782  0.14511009  0.73842704  1
  O  O610  1  0.79774605  0.18120618  0.81140809  1
  C  C611  1  0.93444635  0.15951774  0.69404309  1
  H  H612  1  0.79178754  0.22816083  0.60722328  1
  H  H613  1  0.97655490  0.18881952  0.60925113  1
  H  H614  1  0.77843840  0.06574053  0.95685170  1
  H  H615  1  0.88476700  0.12168353  0.77111082  1
  O  O616  1  0.98963996  0.18198056  0.93684408  1
  H  H617  1  0.90171947  0.19369458  0.52970264  1
  C  C618  1  0.85004317  0.17451815  0.61515365  1
  C  C619  1  0.88824144  0.14104221  0.71917868  1
  H  H620  1  0.77087129  0.07302721  0.73642895  1
  C  C621  1  0.93849247  0.18153439  0.62924428  1
  C  C622  1  0.76191507  0.02265061  0.95849307  1
  H  H623  1  0.80961543  0.08471733  0.54606911  1
  O  O624  1  0.97184239  0.11611067  0.78902117  1
  N  N625  1  0.80236961  0.19132167  0.58395199  1
  C  C626  1  0.84490986  0.15438852  0.68187416  1
  O  O627  1  0.81558138  0.08400185  0.81207456  1
  C  C628  1  0.89724872  0.18715141  0.58623510  1
  H  H629  1  0.81040497  0.14752532  0.70617635  1
  C  C630  1  0.80588141  0.13193096  0.81161118  1
  O  O631  1  0.67086286  0.39558533  0.11108255  1
  Zn  Zn632  1  0.67828323  0.30683758  0.13596551  1
  C  C633  1  0.62641655  0.37037319  0.30954348  1
  H  H634  1  0.62024295  0.39833412  0.26638300  1
  C  C635  1  0.65094852  0.39109477  0.36555241  1
  O  O636  1  0.58986550  0.31629239  0.14571007  1
  C  C637  1  0.57164361  0.29828200  0.19651467  1
  C  C638  1  0.60665238  0.31373376  0.31502891  1
  C  C639  1  0.67841807  0.44129023  0.14417042  1
  H  H640  1  0.53577487  0.34270446  0.45613244  1
  N  N641  1  0.58007823  0.29042284  0.26178530  1
  O  O642  1  0.70219049  0.26682918  0.03480020  1
  C  C643  1  0.51441482  0.44630095  0.40749097  1
  O  O644  1  0.51348276  0.40817839  0.36520910  1
  C  C645  1  0.52339242  0.43112796  0.47999063  1
  O  O646  1  0.66562339  0.44716938  0.20192844  1
  H  H647  1  0.66811757  0.43311115  0.36705813  1
  C  C648  1  0.65595003  0.35616184  0.42319029  1
  C  C649  1  0.53452184  0.37462335  0.49695436  1
  C  C650  1  0.63701768  0.30154355  0.42941459  1
  O  O651  1  0.50735738  0.49849665  0.39609304  1
  C  C652  1  0.71518952  0.47861883  0.03953090  1
  C  C653  1  0.70501715  0.48875680  0.10777292  1
  C  C654  1  0.61078273  0.27891034  0.37397623  1
  H  H655  1  0.64408295  0.27778147  0.47564747  1
  O  O656  1  0.70418850  0.43162018  0.47337934  1
  C  C657  1  0.68389969  0.38401841  0.48273961  1
  C  C658  1  0.55233326  0.25005471  0.24157242  1
  H  H659  1  0.70307615  0.44059258  0.01451684  1
  O  O660  1  0.75663074  0.31760188  0.16611301  1
  O  O661  1  0.78879915  0.37176647  0.24387687  1
  C  C662  1  0.98167106  0.38574427  0.34030052  1
  C  C663  1  0.85462309  0.47176087  0.04971999  1
  O  O664  1  0.93944375  0.26193567  0.20966278  1
  C  C665  1  0.82122937  0.43022462  0.02328688  1
  H  H666  1  0.77229058  0.35989357  0.05371905  1
  C  C667  1  0.85717920  0.28483385  0.01824912  1
  C  C668  1  0.99453920  0.33197445  0.23944790  1
  C  C669  1  0.78158990  0.35819894  0.18665812  1
  C  C670  1  0.95907460  0.39474926  0.41060004  1
  C  C671  1  0.80586671  0.27483388  0.02471962  1
  H  H672  1  0.88658550  0.27083935  0.05694007  1
  H  H673  1  0.93192331  0.31738184  0.30626232  1
  C  C674  1  0.79698833  0.39363872  0.07012039  1
  C  C675  1  0.97966098  0.27988342  0.19994867  1
  O  O676  1  0.94102907  0.38742925  0.10621543  1
  C  C677  1  0.84393754  0.43761335  0.16473327  1
  N  N678  1  0.98758825  0.43368184  0.44789373  1
  C  C679  1  0.96973227  0.41106284  0.07228556  1
  C  C680  1  0.86892166  0.47218935  0.12021603  1
  O  O681  1  0.91932062  0.37827691  0.42441839  1
  H  H682  1  0.85050182  0.44246010  0.22005716  1
  C  C683  1  0.96605740  0.34432033  0.29581409  1
  C  C684  1  0.80777037  0.39891636  0.13820110  1
  H  H685  1  0.95896783  0.29491248  0.42403928  1
  H  H686  1  0.97146984  0.45347805  0.49000198  1
  C  C687  1  0.98115391  0.25768003  0.43497960  1
  H  H688  1  0.78685081  0.25599441  0.07015927  1
  H  H689  1  0.65879532  0.44008066  0.74575151  1
  N  N690  1  0.53406606  0.38610056  0.68375269  1
  H  H691  1  0.56619284  0.36930792  0.70350935  1
  H  H692  1  0.66028903  0.44587949  0.60926642  1
  O  O693  1  0.60084402  0.36324877  0.83432959  1
  C  C694  1  0.56520725  0.33945441  0.86451090  1
  C  C695  1  0.57253374  0.30064473  0.92051195  1
  Zn  Zn696  1  0.59614147  0.46104924  0.83092468  1
  N  N697  1  0.63523244  0.47228273  0.74162067  1
  H  H698  1  0.72608846  0.31991911  0.66295966  1
  H  H699  1  0.65833471  0.30291333  0.69388838  1
  C  C700  1  0.53849933  0.39907837  0.61272044  1
  C  C701  1  0.54663140  0.35705280  0.56310664  1
  H  H702  1  0.55625084  0.31201925  0.57385237  1
  C  C703  1  0.64433962  0.48720686  0.62095430  1
  O  O704  1  0.53205143  0.46971309  0.75225419  1
  O  O705  1  0.68865907  0.29951779  0.93594945  1
  N  N706  1  0.64426177  0.26681860  0.67011143  1
  C  C707  1  0.51395171  0.35666839  0.85079450  1
  C  C708  1  0.53204906  0.45790297  0.59543900  1
  O  O709  1  0.66921117  0.47996250  0.88738677  1
  O  O710  1  0.68471175  0.36175473  0.53806824  1
  H  H711  1  0.51015463  0.39422007  0.81673740  1
  H  H712  1  0.61239418  0.29312212  0.93827035  1
  C  C713  1  0.53269569  0.27827508  0.95328457  1
  C  C714  1  0.52521904  0.47305065  0.52960260  1
  H  H715  1  0.57342642  0.30315298  0.76874103  1
  O  O716  1  0.74173977  0.47049204  0.83902925  1
  C  C717  1  0.71805603  0.28746005  0.98118812  1
  O  O718  1  0.55288165  0.49082209  0.90682761  1
  H  H719  1  0.53579324  0.49070652  0.63400949  1
  C  C720  1  0.70591423  0.49971815  0.85518637  1
  C  C721  1  0.56594211  0.26582917  0.73632051  1
  C  C722  1  0.51268545  0.43194449  0.71989529  1
  N  N723  1  0.74843385  0.29901098  0.69666386  1
  H  H724  1  0.74141580  0.48980002  0.69802502  1
  O  O725  1  0.96234064  0.34154087  0.58910170  1
  C  C726  1  0.88300681  0.28212468  0.71925320  1
  C  C727  1  0.98778563  0.49411822  0.99311613  1
  H  H728  1  0.82013625  0.25594220  0.77701366  1
  O  O729  1  0.92214886  0.49424289  0.67526730  1
  C  C730  1  0.89078809  0.46472507  0.78674862  1
  C  C731  1  0.91515957  0.41318300  0.79990917  1
  H  H732  1  0.92419858  0.38137077  0.76053185  1
  C  C733  1  0.87857746  0.49046362  0.89577402  1
  C  C734  1  0.84257563  0.32384758  0.90287132  1
  H  H735  1  0.76255092  0.33196749  0.87361169  1
  C  C736  1  0.77473077  0.29507249  0.97261126  1
  H  H737  1  0.81160576  0.42738916  0.96903147  1
  H  H738  1  0.90682739  0.43007228  0.96729802  1
  C  C739  1  0.89863193  0.43754260  0.91370232  1
  H  H740  1  0.85801437  0.34011421  0.85634545  1
  H  H741  1  0.94716730  0.28944462  0.96822180  1
  C  C742  1  0.87417434  0.30868353  0.95656261  1
  H  H743  1  0.78545601  0.34623710  0.58456417  1
  C  C744  1  0.83275831  0.27681099  0.72966898  1
  H  H745  1  0.87768757  0.36290616  0.57214017  1
  C  C746  1  0.88872611  0.48136251  0.71216866  1
  O  O747  1  0.95619026  0.31268229  0.83784838  1
  H  H748  1  0.91140693  0.26806134  0.75462107  1
  H  H749  1  0.81506779  0.46364628  0.74487402  1
  N  N750  1  0.83761051  0.48020238  0.70779350  1
  C  C751  1  0.79688115  0.30241954  0.68392508  1
  C  C752  1  0.86373358  0.33780217  0.61477121  1
  C  C753  1  0.95123604  0.32097695  0.64190607  1
  N  N754  1  0.92718940  0.32250204  0.94809951  1
  C  C755  1  0.89629464  0.30853256  0.65715319  1
  C  C756  1  0.93700105  0.34007910  0.88182085  1
  C  C757  1  0.79072892  0.31720328  0.91122635  1
  C  C758  1  0.81206511  0.33275853  0.62407996  1
  C  C759  1  0.91510370  0.39705829  0.86813260  1
  O  O760  1  0.98359400  0.30818800  0.68601944  1
  Zn  Zn761  1  0.56386265  0.56474513  0.40931395  1
  O  O762  1  0.56043417  0.58079315  0.31055850  1
  C  C763  1  0.54301396  0.62578592  0.27994180  1
  H  H764  1  0.54929685  0.73192229  0.11957810  1
  H  H765  1  0.66685617  0.56684964  0.05126306  1
  O  O766  1  0.57270536  0.65552144  0.25062720  1
  O  O767  1  0.62855585  0.59380907  0.46217214  1
  H  H768  1  0.69579094  0.66950685  0.06537908  1
  N  N769  1  0.66024497  0.68191270  0.05143711  1
  C  C770  1  0.62458279  0.64840011  0.02756754  1
  C  C771  1  0.63525639  0.58852003  0.02526948  1
  C  C772  1  0.71983707  0.53484647  0.14624284  1
  H  H773  1  0.70833803  0.53869662  0.20052331  1
  C  C774  1  0.74540400  0.57918661  0.11357772  1
  O  O775  1  0.50897606  0.59522730  0.48770341  1
  H  H776  1  0.51446761  0.72133728  0.24482412  1
  H  H777  1  0.57659302  0.71905713  0.00194147  1
  C  C778  1  0.74117693  0.51888849  0.00610616  1
  C  C779  1  0.75215981  0.57108761  0.04207527  1
  H  H780  1  0.75663821  0.61696155  0.13772415  1
  C  C781  1  0.77985985  0.66433452  0.03018883  1
  N  N782  1  0.87151996  0.52036202  0.01324227  1
  Zn  Zn783  1  0.77434548  0.74096378  0.47910720  1
  H  H784  1  0.90726345  0.74542117  0.27264823  1
  H  H785  1  0.95122433  0.51531105  0.00112807  1
  O  O786  1  0.78594730  0.67964594  0.08539697  1
  O  O787  1  0.88457669  0.73883383  0.39142505  1
  H  H788  1  0.87280036  0.55564031  0.04478559  1
  H  H789  1  0.82082188  0.68006902  0.42267986  1
  O  O790  1  0.98259284  0.69019107  0.12172964  1
  O  O791  1  0.78948667  0.65764745  0.43302309  1
  C  C792  1  0.98805901  0.72531467  0.16468996  1
  H  H793  1  0.89679997  0.50341319  0.13634702  1
  H  H794  1  0.78345539  0.65097786  0.48490429  1
  N  N795  1  0.77184865  0.61211893  0.00153205  1
  C  C796  1  0.60313467  0.59644590  0.64359581  1
  C  C797  1  0.62280606  0.57983831  0.58125388  1
  C  C798  1  0.60494162  0.55890455  0.69669503  1
  H  H799  1  0.58213367  0.63581365  0.64956496  1
  H  H800  1  0.62281570  0.56415459  0.87040553  1
  C  C801  1  0.65467766  0.58684287  0.85221530  1
  C  C802  1  0.64850515  0.64470716  0.84096094  1
  C  C803  1  0.69973910  0.56201725  0.83618753  1
  H  H804  1  0.59132855  0.56818584  0.74635307  1
  O  O805  1  0.60294965  0.66684395  0.51849187  1
  C  C806  1  0.68997821  0.67305509  0.81197443  1
  H  H807  1  0.61513832  0.66789094  0.85741225  1
  C  C808  1  0.53458357  0.54340940  0.90929935  1
  H  H809  1  0.51894950  0.65375968  0.92517975  1
  C  C810  1  0.56400977  0.58437043  0.95331586  1
  C  C811  1  0.55207162  0.64078218  0.95577486  1
  H  H812  1  0.69587502  0.57896607  0.66210892  1
  O  O813  1  0.69429597  0.67082911  0.60698154  1
  C  C814  1  0.54992287  0.73594299  0.67072377  1
  H  H815  1  0.71580681  0.70015694  0.92543993  1
  C  C816  1  0.51296155  0.68998400  0.68978640  1
  H  H817  1  0.51705853  0.70845744  0.79586094  1
  Zn  Zn818  1  0.64471972  0.73203911  0.56947037  1
  C  C819  1  0.73185615  0.64148064  0.78731983  1
  C  C820  1  0.64362982  0.52553199  0.57001406  1
  H  H821  1  0.54197009  0.71478809  0.58244698  1
  C  C822  1  0.61829990  0.61523970  0.51805905  1
  C  C823  1  0.73972960  0.58584389  0.80143774  1
  N  N824  1  0.68973913  0.73012334  0.80492498  1
  C  C825  1  0.60382341  0.55589937  0.98854924  1
  O  O826  1  0.56128204  0.74877197  0.59552085  1
  C  C827  1  0.58356901  0.67450533  0.99379247  1
  O  O828  1  0.50383948  0.56413020  0.87342832  1
  H  H829  1  0.51963376  0.51886597  0.51780545  1
  H  H830  1  0.61039881  0.50914619  0.98060649  1
  H  H831  1  0.65630765  0.50836671  0.52208649  1
  C  C832  1  0.62840168  0.50471668  0.68791245  1
  H  H833  1  0.50266670  0.65488445  0.58866983  1
  C  C834  1  0.73631251  0.57290290  0.65740675  1
  C  C835  1  0.74180816  0.66868724  0.60051944  1
  C  C836  1  0.73569236  0.74460694  0.79511470  1
  H  H837  1  0.75046321  0.51377549  0.95337339  1
  C  C838  1  0.87181297  0.50703654  0.83025494  1
  C  C839  1  0.75622083  0.70882415  0.91591042  1
  H  H840  1  0.99584332  0.66070107  0.73299633  1
  C  C841  1  0.84537439  0.56599640  0.63911615  1
  H  H842  1  0.92708451  0.71295881  0.55520990  1
  O  O843  1  0.83179463  0.63191625  0.77025191  1
  C  C844  1  0.96746344  0.61054043  0.58562429  1
  O  O845  1  0.97561121  0.57449651  0.54758563  1
  C  C846  1  0.77117600  0.73192819  0.85216299  1
  O  O847  1  0.76681903  0.70928153  0.57954328  1
  H  H848  1  0.95521680  0.55959977  0.71806204  1
  H  H849  1  0.77095521  0.61049532  0.95091384  1
  C  C850  1  0.87387388  0.64024068  0.76898131  1
  H  H851  1  0.88641599  0.56285290  0.63240471  1
  O  O852  1  0.96694801  0.59779829  0.92990201  1
  C  C853  1  0.81513747  0.52494526  0.67285445  1
  C  C854  1  0.79428934  0.69584852  0.96071344  1
  H  H855  1  0.84039624  0.64949815  0.59422473  1
  C  C856  1  0.76758839  0.61677099  0.62622790  1
  H  H857  1  0.76019064  0.66505941  0.75805532  1
  C  C858  1  0.81885603  0.61508774  0.61973356  1
  C  C859  1  0.93236673  0.70474941  0.60933482  1
  C  C860  1  0.85736502  0.53150968  0.94564460  1
  C  C861  1  0.91408299  0.67583668  0.74193994  1
  O  O862  1  0.97915480  0.58546667  0.73906113  1
  C  C863  1  0.90116678  0.73009791  0.71787522  1
  C  C864  1  0.84502876  0.70929355  0.94953662  1
  H  H865  1  0.85512811  0.54860451  0.81386080  1
  C  C866  1  0.76116738  0.52395905  0.67526061  1
  H  H867  1  0.77473324  0.56492614  0.78232773  1
  Zn  Zn868  1  0.92873822  0.63988114  0.84313725  1
  C  C869  1  0.95841211  0.64816994  0.71020095  1
  C  C870  1  0.95754533  0.65588805  0.63278320  1
  O  O871  1  0.83243316  0.56733025  0.92167594  1
  O  O872  1  0.94179468  0.74294430  0.90312809  1
  H  H873  1  0.87455206  0.69952880  0.98596358  1
  C  C874  1  0.85522444  0.74360682  0.89512994  1
  C  C875  1  0.90712893  0.74304512  0.65161040  1
  Zn  Zn876  1  0.56974044  0.88250876  0.05118938  1
  C  C877  1  0.64098281  0.80610828  0.19677807  1
  N  N878  1  0.56795692  0.79581752  0.08092942  1
  C  C879  1  0.66858505  0.83583042  0.14260306  1
  H  H880  1  0.60528649  0.89649866  0.22225370  1
  C  C881  1  0.68787336  0.88708459  0.12532317  1
  C  C882  1  0.70496596  0.90509279  0.05741935  1
  N  N883  1  0.57479897  0.94968827  0.10526695  1
  H  H884  1  0.68900986  0.91510649  0.16947277  1
  O  O885  1  0.61899804  0.80134190  0.24825339  1
  C  C886  1  0.57561990  0.92679390  0.22794954  1
  C  C887  1  0.55812543  0.95711361  0.16881917  1
  C  C888  1  0.55186605  0.93380845  0.28933574  1
  H  H889  1  0.67413447  0.85193043  0.31352511  1
  C  C890  1  0.69900466  0.87288048  0.34829176  1
  C  C891  1  0.71982678  0.92441034  0.33319937  1
  H  H892  1  0.56850661  0.97730789  0.06724228  1
  C  C893  1  0.70540815  0.84672030  0.41084779  1
  C  C894  1  0.68296789  0.78991455  0.43245386  1
  H  H895  1  0.56582866  0.91355164  0.33486741  1
  H  H896  1  0.52722512  0.86389793  0.16312041  1
  C  C897  1  0.52805723  0.76694656  0.09983349  1
  H  H898  1  0.70947904  0.94622103  0.28405356  1
  C  C899  1  0.51024047  0.96912210  0.28763321  1
  C  C900  1  0.73960048  0.87152412  0.45718195  1
  C  C901  1  0.72457286  0.96858008  0.06736805  1
  Zn  Zn902  1  0.65073169  0.75629942  0.09803422  1
  C  C903  1  0.72851333  0.99615995  0.14340685  1
  C  C904  1  0.51411829  0.99264106  0.16837700  1
  O  O905  1  0.50250996  0.96243519  0.40530799  1
  O  O906  1  0.64948074  0.77010405  0.40145425  1
  O  O907  1  0.69871135  0.76443403  0.48612705  1
  C  C908  1  0.70482237  0.86082080  0.00438389  1
  C  C909  1  0.75402545  0.95002519  0.38008004  1
  H  H910  1  0.89590327  0.78234442  0.15491290  1
  C  C911  1  0.95914205  0.83346324  0.02079243  1
  H  H912  1  0.78922106  0.93868878  0.48218253  1
  O  O913  1  0.87206472  0.94952800  0.48722679  1
  O  O914  1  0.85063864  0.81866667  0.01538156  1
  C  C915  1  0.85485606  0.77680169  0.37978220  1
  C  C916  1  0.87660027  0.79968736  0.19804283  1
  C  C917  1  0.76339131  0.92183943  0.44084095  1
  O  O918  1  0.84413469  0.99411707  0.27621259  1
  C  C919  1  0.84100199  0.84365763  0.18606442  1
  H  H920  1  0.80831032  0.98605647  0.16775833  1
  H  H921  1  0.97058994  0.89520223  0.29260421  1
  C  C922  1  0.96077926  0.83936540  0.47978455  1
  O  O923  1  0.97702177  0.85717232  0.30610254  1
  H  H924  1  0.95291407  0.83730373  0.27484305  1
  H  H925  1  0.79948549  0.87506488  0.10523355  1
  H  H926  1  0.78585091  0.86224339  0.34636889  1
  C  C927  1  0.88018834  0.77863778  0.26291914  1
  Zn  Zn928  1  0.97753075  0.90288531  0.08105685  1
  C  C929  1  0.97660475  0.98036111  0.40904799  1
  N  N930  1  0.95147437  0.98015043  0.28740113  1
  C  C931  1  0.95048588  0.79341304  0.08381869  1
  C  C932  1  0.86779917  0.99768960  0.47503960  1
  H  H933  1  0.93880276  0.96470415  0.42749243  1
  C  C934  1  0.86506534  0.84044929  0.06512917  1
  H  H935  1  0.93075219  0.84314825  0.44049003  1
  H  H936  1  0.78203481  0.89954298  0.23024942  1
  C  C937  1  0.92063081  0.84560692  0.06897393  1
  C  C938  1  0.98495945  0.99062001  0.33755085  1
  C  C939  1  0.81088562  0.86546306  0.23769824  1
  N  N940  1  0.78952415  0.99385679  0.36730093  1
  C  C941  1  0.81288564  0.84747387  0.30460401  1
  N  N942  1  0.83501058  0.86313715  0.11640018  1
  H  H943  1  0.91440183  0.97341642  0.29282352  1
  H  H944  1  0.92939835  0.75304503  0.06949934  1
  C  C945  1  0.77102691  0.99793176  0.18434888  1
  C  C946  1  0.84855268  0.80555759  0.31189500  1
  H  H947  1  0.81738634  0.99184414  0.40265383  1
  O  O948  1  0.97754721  0.77933418  0.15588218  1
  O  O949  1  0.82575415  0.79076878  0.42764638  1
  O  O950  1  0.66925613  0.80016584  0.62248700  1
  C  C951  1  0.66073568  0.93229148  0.91935096  1
  C  C952  1  0.61293804  0.92228926  0.93423579  1
  C  C953  1  0.69172637  0.94810629  0.86244811  1
  O  O954  1  0.65825511  0.92303342  0.56837592  1
  C  C955  1  0.69499291  0.93413228  0.60216551  1
  Zn  Zn956  1  0.70917690  0.84120351  0.70049571  1
  H  H957  1  0.65917860  0.83300191  0.60402119  1
  N  N958  1  0.57185728  0.91100560  0.95530543  1
  H  H959  1  0.61304694  0.82048145  0.75345335  1
  O  O960  1  0.63913351  0.84463906  0.77489028  1
  O  O961  1  0.72747635  0.89647935  0.61372030  1
  H  H962  1  0.65393327  0.81459084  0.80617124  1
  H  H963  1  0.67393347  0.93757867  0.81489971  1
  Zn  Zn964  1  0.73149145  0.93923035  0.96195512  1
  C  C965  1  0.74792567  0.94483896  0.86005057  1
  O  O966  1  0.53970232  0.77718973  0.88529263  1
  O  O967  1  0.70497236  0.81497741  0.98219393  1
  Zn  Zn968  1  0.50366671  0.91712348  0.88688250  1
  O  O969  1  0.57231792  0.76501263  0.70923759  1
  C  C970  1  0.70038396  0.99393323  0.63090861  1
  H  H971  1  0.74536036  0.85307121  0.50592611  1
  O  O972  1  0.75068218  0.76434945  0.74058651  1
  C  C973  1  0.99012202  0.82071618  0.80389384  1
  C  C974  1  0.88585242  0.80130797  0.62810585  1
  O  O975  1  0.75805518  0.89678421  0.75849304  1
  C  C976  1  0.77669380  0.98449490  0.89584001  1
  H  H977  1  0.99830902  0.78078877  0.83264895  1
  C  C978  1  0.93931259  0.84124649  0.80610028  1
  H  H979  1  0.81456007  0.99339936  0.87429682  1
  C  C980  1  0.82081841  0.75189311  0.84221442  1
  C  C981  1  0.98755028  0.81936868  0.59930606  1
  C  C982  1  0.92667677  0.89006979  0.76818249  1
  N  N983  1  0.90265820  0.82047126  0.85196836  1
  H  H984  1  0.87220486  0.83062392  0.53131534  1
  H  H985  1  0.88697308  0.90470429  0.76423359  1
  H  H986  1  0.88499259  0.76209724  0.75262019  1
  H  H987  1  0.76941665  0.97839540  0.68394335  1
  H  H988  1  0.95455632  0.96369141  0.70936243  1
  C  C989  1  0.95098113  0.82008842  0.54522278  1
  C  C990  1  0.96220254  0.92412898  0.73577084  1
  O  O991  1  0.81522166  0.88118120  0.83369275  1
  N  N992  1  0.90043340  0.81053436  0.55954671  1
  H  H993  1  0.83284481  0.77430593  0.79519342  1
  C  C994  1  0.90700220  0.76748715  0.87954561  1
  H  H995  1  0.94592540  0.82254752  0.96908086  1
  C  C996  1  0.77681557  0.90398173  0.81778101  1
  H  H997  1  0.86658080  0.84008983  0.84796306  1
  O  O998  1  0.86075605  0.82691655  0.66508181  1
  H  H999  1  0.97842234  0.80644672  0.65183170  1
