# generated using pymatgen
data_Zn8H72C99O38
_symmetry_space_group_name_H-M   'P 1'
_cell_length_a   23.33256989
_cell_length_b   24.99099047
_cell_length_c   23.90925087
_cell_angle_alpha   90.00000000
_cell_angle_beta   90.00000000
_cell_angle_gamma   90.00000000
_symmetry_Int_Tables_number   1
_chemical_formula_structural   Zn8H72C99O38
_chemical_formula_sum   'Zn32 H288 C396 O152'
_cell_volume   13941.58058212
_cell_formula_units_Z   4
loop_
 _symmetry_equiv_pos_site_id
 _symmetry_equiv_pos_as_xyz
  1  'x, y, z'
loop_
 _atom_site_type_symbol
 _atom_site_label
 _atom_site_symmetry_multiplicity
 _atom_site_fract_x
 _atom_site_fract_y
 _atom_site_fract_z
 _atom_site_occupancy
  H  H0  1  0.17285334  0.37022647  0.17314322  1
  C  C1  1  0.13718936  0.35790991  0.20394118  1
  H  H2  1  0.33436222  0.34212178  0.22498873  1
  H  H3  1  0.20974852  0.16352070  0.19393451  1
  H  H4  1  0.33744334  0.10679519  0.07471388  1
  C  C5  1  0.21175212  0.04636795  0.11747426  1
  H  H6  1  0.19223840  0.19884921  0.09673927  1
  C  C7  1  0.10686092  0.21008333  0.05993166  1
  H  H8  1  0.32861466  0.29636158  0.13119563  1
  O  O9  1  0.09128203  0.34294267  0.16886513  1
  C  C10  1  0.09592104  0.30013227  0.13377263  1
  H  H11  1  0.48942253  0.47793747  0.24102181  1
  C  C12  1  0.10833687  0.16207920  0.02449610  1
  C  C13  1  0.26630502  0.05605902  0.09332728  1
  C  C14  1  0.41446312  0.36944887  0.18806223  1
  C  C15  1  0.37204903  0.28449653  0.14355978  1
  C  C16  1  0.15185089  0.22304042  0.09662233  1
  H  H17  1  0.49385746  0.41110312  0.16758529  1
  C  C18  1  0.14486368  0.26538819  0.13141951  1
  H  H19  1  0.18008017  0.27959248  0.15816426  1
  H  H20  1  0.15222852  0.08571115  0.16718183  1
  H  H21  1  0.37164825  0.26917727  0.18723847  1
  C  C22  1  0.05957304  0.24408812  0.05759243  1
  C  C23  1  0.39098483  0.24491617  0.10315237  1
  C  C24  1  0.05542403  0.28891560  0.09221336  1
  H  H25  1  0.02891763  0.23623115  0.02363699  1
  C  C26  1  0.12653315  0.45771754  0.21225716  1
  O  O27  1  0.33627055  0.27146141  0.01090614  1
  H  H28  1  0.41254974  0.22581024  0.02426128  1
  H  H29  1  0.42030670  0.29564570  0.03583085  1
  C  C30  1  0.22597177  0.13569217  0.16358744  1
  C  C31  1  0.29684319  0.10334182  0.10083409  1
  C  C32  1  0.35804578  0.19319065  0.10546337  1
  H  H33  1  0.33484610  0.18931707  0.06659184  1
  H  H34  1  0.38982970  0.15941685  0.10679646  1
  O  O35  1  0.31023053  0.18829373  0.14591381  1
  C  C36  1  0.27993479  0.14283877  0.13900282  1
  C  C37  1  0.37005682  0.37099667  0.22916864  1
  C  C38  1  0.39387974  0.26066045  0.04330988  1
  C  C39  1  0.19382968  0.09099469  0.14877993  1
  O  O40  1  0.08445536  0.48261659  0.16429031  1
  O  O41  1  0.15423335  0.13585363  0.02175017  1
  C  C42  1  0.45565594  0.40998921  0.19633936  1
  O  O43  1  0.41860158  0.33426512  0.14697796  1
  H  H44  1  0.28292464  0.02286369  0.06907731  1
  C  C45  1  0.45332558  0.23274917  0.12303803  1
  H  H46  1  0.17124551  0.46493563  0.19157377  1
  H  H47  1  0.44796845  0.21154738  0.16544318  1
  H  H48  1  0.03383906  0.40352479  0.23205025  1
  H  H49  1  0.47919392  0.27093279  0.12838606  1
  C  C50  1  0.02105285  0.10065863  0.17707828  1
  H  H51  1  0.01974212  0.31667123  0.08654697  1
  C  C52  1  0.07098943  0.11695171  0.21486276  1
  H  H53  1  0.15440261  0.32225816  0.22656856  1
  O  O54  1  0.48433349  0.20145252  0.08351512  1
  C  C55  1  0.12362977  0.40638667  0.24298957  1
  C  C56  1  0.45485297  0.44682395  0.23874793  1
  H  H57  1  0.08521027  0.19963533  0.19569528  1
  C  C58  1  0.09730470  0.16715340  0.22330249  1
  H  H59  1  0.00550284  0.44950988  0.16636379  1
  H  H60  1  0.11126244  0.49280791  0.23685001  1
  H  H61  1  0.00223222  0.35492795  0.14154060  1
  O  O62  1  0.00988991  0.13836961  0.14358543  1
  H  H63  1  0.45033892  0.12498357  0.00315299  1
  C  C64  1  0.12990825  0.08779809  0.29346438  1
  H  H65  1  0.35839304  0.10963397  0.41260452  1
  O  O66  1  0.20295131  0.35457829  0.30281208  1
  H  H67  1  0.27980406  0.46059917  0.43576708  1
  H  H68  1  0.35933054  0.30138545  0.41385282  1
  C  C69  1  0.42300082  0.27640180  0.30190535  1
  H  H70  1  0.14020370  0.05028345  0.31510644  1
  C  C71  1  0.24015895  0.35825511  0.34446976  1
  C  C72  1  0.28386424  0.32017888  0.35877463  1
  H  H73  1  0.21077915  0.43872220  0.36478702  1
  H  H74  1  0.43001215  0.30282177  0.26315234  1
  C  C75  1  0.16667100  0.40573372  0.28840283  1
  H  H76  1  0.05689894  0.35847484  0.28339612  1
  H  H77  1  0.20594684  0.42883891  0.27870399  1
  C  C78  1  0.28039106  0.42108792  0.41331563  1
  C  C79  1  0.24122259  0.40663496  0.37427676  1
  C  C80  1  0.31954541  0.37928506  0.42651707  1
  C  C81  1  0.26641998  0.09264041  0.40845991  1
  C  C82  1  0.44170918  0.25388412  0.39956696  1
  H  H83  1  0.37087892  0.21589942  0.26480982  1
  H  H84  1  0.21009095  0.13630147  0.46585617  1
  O  O85  1  0.39194774  0.35045090  0.48402341  1
  H  H86  1  0.28624598  0.28167995  0.33694022  1
  C  C87  1  0.44744125  0.28777566  0.35302183  1
  C  C88  1  0.41489815  0.49090490  0.32176810  1
  H  H89  1  0.23539438  0.07149856  0.32679243  1
  C  C90  1  0.21854150  0.08916277  0.36570919  1
  C  C91  1  0.36707869  0.40853547  0.27302389  1
  H  H92  1  0.18536283  0.06091552  0.38016575  1
  O  O93  1  0.19980811  0.14196709  0.34201244  1
  C  C94  1  0.06468600  0.39777865  0.26363411  1
  C  C95  1  0.40706981  0.20927661  0.39769941  1
  C  C96  1  0.41072369  0.44606457  0.27943857  1
  O  O97  1  0.04528184  0.43366952  0.31501633  1
  H  H98  1  0.15545152  0.21937511  0.27117074  1
  C  C99  1  0.35934193  0.38966169  0.47346359  1
  C  C100  1  0.32123181  0.32870643  0.40066692  1
  C  C101  1  0.31808323  0.12894330  0.39674058  1
  H  H102  1  0.31352626  0.16949956  0.41939297  1
  C  C103  1  0.38978617  0.23013799  0.30554611  1
  O  O104  1  0.33556930  0.15404191  0.34620047  1
  C  C105  1  0.37508890  0.19665369  0.35057152  1
  H  H106  1  0.14895968  0.41721493  0.32872664  1
  H  H107  1  0.46010558  0.26566131  0.44095923  1
  C  C108  1  0.28984056  0.03784110  0.40945794  1
  H  H109  1  0.40176102  0.18432317  0.43530170  1
  O  O110  1  0.33621444  0.01506009  0.45495896  1
  C  C111  1  0.15461186  0.13742335  0.30399536  1
  C  C112  1  0.24168695  0.10445208  0.46398661  1
  C  C113  1  0.13832202  0.17807123  0.26483817  1
  C  C114  1  0.48739180  0.33460692  0.36139403  1
  H  H115  1  0.33118318  0.41098690  0.30220252  1
  H  H116  1  0.31702897  0.02669973  0.37124126  1
  O  O117  1  0.20162820  0.06392239  0.49638141  1
  O  O118  1  0.49701073  0.36250131  0.31984321  1
  O  O119  1  0.37454876  0.49552653  0.35669642  1
  H  H120  1  0.27676633  0.10419847  0.49641712  1
  H  H121  1  0.00576869  0.49286674  0.40189417  1
  H  H122  1  0.25464670  0.00955045  0.41437389  1
  H  H123  1  0.06626203  0.03792981  0.25377067  1
  C  C124  1  0.08815127  0.07788378  0.25290122  1
  O  O125  1  0.37429786  0.36509825  0.62432378  1
  H  H126  1  0.31183310  0.16871747  0.69276458  1
  C  C127  1  0.32844192  0.07256974  0.57070038  1
  H  H128  1  0.33517966  0.04563012  0.53419870  1
  C  C129  1  0.15236303  0.41008638  0.62929451  1
  C  C130  1  0.35317407  0.21705186  0.60733893  1
  C  C131  1  0.30405927  0.05173445  0.62002794  1
  C  C132  1  0.21516850  0.39328641  0.61546624  1
  C  C133  1  0.06282273  0.45066773  0.60295837  1
  Zn  Zn134  1  0.34212589  0.43283138  0.59195251  1
  C  C135  1  0.34998044  0.12353035  0.56418641  1
  O  O136  1  0.11033334  0.05969339  0.74827086  1
  C  C137  1  0.06971487  0.40496330  0.68920594  1
  H  H138  1  0.22804854  0.15024657  0.56071706  1
  C  C139  1  0.03487903  0.43401233  0.65188317  1
  Zn  Zn140  1  0.42940738  0.38084778  0.68379421  1
  H  H141  1  0.15239726  0.36961615  0.70782681  1
  C  C142  1  0.38254137  0.48983854  0.69576726  1
  C  C143  1  0.30027932  0.08741192  0.66561606  1
  O  O144  1  0.37759313  0.24141155  0.56723328  1
  C  C145  1  0.31623184  0.14014989  0.65943800  1
  H  H146  1  0.36792103  0.13799639  0.52511927  1
  C  C147  1  0.13873880  0.09279955  0.72150487  1
  Zn  Zn148  1  0.40794274  0.31911175  0.56439791  1
  C  C149  1  0.33807980  0.15911775  0.60852008  1
  H  H150  1  0.28237528  0.07405441  0.70641146  1
  C  C151  1  0.12014231  0.44153925  0.59331627  1
  C  C152  1  0.19931591  0.11921323  0.57963919  1
  O  O153  1  0.33873694  0.24621965  0.64818578  1
  C  C154  1  0.12753560  0.39401141  0.67860642  1
  Zn  Zn155  1  0.31219604  0.32554167  0.66223008  1
  C  C156  1  0.14351463  0.04059537  0.57761811  1
  C  C157  1  0.18321993  0.07365193  0.54736954  1
  O  O158  1  0.23197638  0.35619355  0.64633067  1
  C  C159  1  0.12710861  0.04371295  0.63266475  1
  O  O160  1  0.24243734  0.41196941  0.57736840  1
  C  C161  1  0.15029191  0.08862572  0.66186945  1
  C  C162  1  0.18736430  0.12411499  0.63662058  1
  H  H163  1  0.20829845  0.15590978  0.66157652  1
  H  H164  1  0.20277504  0.48858838  0.59068353  1
  O  O165  1  0.40640929  0.45217000  0.72130189  1
  O  O166  1  0.37541612  0.49162469  0.64300582  1
  H  H167  1  0.14147091  0.45315400  0.55312962  1
  H  H168  1  0.09771647  0.01459156  0.65263790  1
  H  H169  1  0.05242875  0.39610391  0.73111676  1
  O  O170  1  0.16239585  0.13020777  0.74899453  1
  H  H171  1  0.24403801  0.00248444  0.55472127  1
  H  H172  1  0.03646156  0.47311179  0.57284292  1
  H  H173  1  0.12313697  0.49539713  0.72433778  1
  H  H174  1  0.12552768  0.01029729  0.55010481  1
  O  O175  1  0.49696078  0.31265025  0.57960727  1
  O  O176  1  0.28657482  0.00006909  0.62639263  1
  O  O177  1  0.35800738  0.43369583  0.50116272  1
  H  H178  1  0.45154282  0.21101614  0.85120146  1
  Zn  Zn179  1  0.09975856  0.04854068  0.83540508  1
  H  H180  1  0.15864431  0.42782087  0.76991765  1
  C  C181  1  0.36086615  0.32531205  0.77867386  1
  O  O182  1  0.06258045  0.15193548  0.99781844  1
  C  C183  1  0.07690819  0.43788138  0.81575667  1
  C  C184  1  0.05092646  0.35395387  0.86303798  1
  O  O185  1  0.25628244  0.09927827  0.92967663  1
  C  C186  1  0.10135246  0.32719477  0.84282752  1
  C  C187  1  0.46273554  0.17157403  0.93006848  1
  H  H188  1  0.25009443  0.28791582  0.93255777  1
  C  C189  1  0.03982057  0.40577772  0.84794305  1
  H  H190  1  0.35017203  0.18653577  0.83495869  1
  C  C191  1  0.11718782  0.27211720  0.85748826  1
  O  O192  1  0.40901295  0.33324519  0.76056983  1
  O  O193  1  0.16052180  0.24871001  0.83760108  1
  H  H194  1  0.34891872  0.09704422  0.98587822  1
  Zn  Zn195  1  0.16567806  0.15904579  0.83117454  1
  Zn  Zn196  1  0.16213103  0.08635500  0.94722853  1
  H  H197  1  0.26255766  0.30725038  0.83871628  1
  H  H198  1  0.44482286  0.30858885  0.85293545  1
  C  C199  1  0.34121875  0.28436737  0.95632294  1
  C  C200  1  0.43021150  0.13645248  0.96310356  1
  C  C201  1  0.39419039  0.29316894  0.92895413  1
  C  C202  1  0.37228052  0.12430508  0.95711402  1
  O  O203  1  0.08358701  0.24885478  0.89150036  1
  C  C204  1  0.34373973  0.14292978  0.91004330  1
  C  C205  1  0.37356165  0.17292504  0.87172445  1
  H  H206  1  0.43472096  0.28993327  0.95391979  1
  C  C207  1  0.43020450  0.18719703  0.88391898  1
  O  O208  1  0.12085154  0.11667542  0.87976396  1
  C  C209  1  0.28051127  0.13209848  0.89844422  1
  O  O210  1  0.25629685  0.14995720  0.85704701  1
  C  C211  1  0.12605476  0.40906281  0.79457346  1
  C  C212  1  0.13727385  0.35671247  0.80979176  1
  H  H213  1  0.17383593  0.33204890  0.79371125  1
  C  C214  1  0.29526934  0.29015349  0.91922132  1
  C  C215  1  0.30096715  0.30095199  0.86358108  1
  Zn  Zn216  1  0.05332972  0.16371925  0.90528415  1
  C  C217  1  0.35472317  0.30943531  0.83880415  1
  C  C218  1  0.40250289  0.30416576  0.87349603  1
  O  O219  1  0.31455116  0.32502195  0.75087187  1
  O  O220  1  0.15068135  0.00269037  0.94486428  1
  H  H221  1  0.01882135  0.32900341  0.88404640  1
  H  H222  1  0.39524054  0.49876171  0.81130115  1
  O  O223  1  0.06684614  0.48683705  0.79889711  1
  O  O224  1  0.00491743  0.07310622  0.82864660  1
  Zn  Zn225  1  0.04320487  0.80707870  0.08127424  1
  H  H226  1  0.43266756  0.80184396  0.21657827  1
  C  C227  1  0.42296048  0.66987321  0.05683507  1
  C  C228  1  0.44827562  0.80461623  0.12881775  1
  C  C229  1  0.04529000  0.61413232  0.10798791  1
  C  C230  1  0.12641953  0.56974268  0.18222257  1
  C  C231  1  0.08409017  0.64552357  0.13832750  1
  C  C232  1  0.12498989  0.62396101  0.17517040  1
  C  C233  1  0.41948849  0.81399006  0.07866840  1
  C  C234  1  0.42974504  0.66580968  0.23903532  1
  C  C235  1  0.05055547  0.56007108  0.11642337  1
  C  C236  1  0.07811788  0.70395853  0.13398374  1
  C  C237  1  0.36079996  0.82159450  0.07536920  1
  O  O238  1  0.04402048  0.72207236  0.09795034  1
  H  H239  1  0.32780741  0.81194936  0.21699928  1
  C  C240  1  0.38276923  0.68934367  0.15117428  1
  O  O241  1  0.10705216  0.85009358  0.11426574  1
  C  C242  1  0.35277622  0.81308571  0.17662248  1
  Zn  Zn243  1  0.16888268  0.87648181  0.06531496  1
  H  H244  1  0.15629305  0.65126900  0.19627831  1
  H  H245  1  0.33626608  0.82108436  0.03766585  1
  Zn  Zn246  1  0.08137747  0.92338461  0.14570079  1
  C  C247  1  0.46748440  0.63533300  0.14238313  1
  C  C248  1  0.46696703  0.64223115  0.08577754  1
  C  C249  1  0.42734178  0.66044623  0.17657501  1
  C  C250  1  0.38097181  0.68949638  0.09373210  1
  C  C251  1  0.41166769  0.80747775  0.17577385  1
  H  H252  1  0.44791257  0.81475608  0.04064318  1
  C  C253  1  0.08973517  0.53416833  0.15371552  1
  C  C254  1  0.32681390  0.81884074  0.12435725  1
  O  O255  1  0.23462381  0.81743923  0.07576669  1
  H  H256  1  0.15705160  0.55359133  0.21446396  1
  C  C257  1  0.18271719  0.99441855  0.11628903  1
  Zn  Zn258  1  0.14339261  0.81051611  0.17164598  1
  C  C259  1  0.26234230  0.81683513  0.12189551  1
  H  H260  1  0.34823254  0.71168041  0.07109465  1
  O  O261  1  0.23702577  0.81395651  0.16754934  1
  O  O262  1  0.09211312  0.92022332  0.23674880  1
  O  O263  1  0.20119831  0.95314861  0.09256392  1
  O  O264  1  0.11007065  0.73012329  0.16515724  1
  H  H265  1  0.34760882  0.70616089  0.17622915  1
  O  O266  1  0.13506874  0.99222124  0.13959547  1
  H  H267  1  0.01893294  0.53555788  0.09531952  1
  H  H268  1  0.01036945  0.63199868  0.08374516  1
  H  H269  1  0.39187953  0.75290561  0.00187792  1
  H  H270  1  0.30748790  0.90691563  0.00608879  1
  O  O271  1  0.41914830  0.67690669  0.00048261  1
  C  C272  1  0.39384459  0.87627239  0.46737246  1
  O  O273  1  0.26149214  0.57926103  0.37604461  1
  O  O274  1  0.39807690  0.63223395  0.38692061  1
  H  H275  1  0.26053672  0.89379699  0.48739126  1
  H  H276  1  0.29223670  0.95478463  0.37771809  1
  H  H277  1  0.07978084  0.71059940  0.30036185  1
  O  O278  1  0.45821034  0.52025234  0.32564649  1
  C  C279  1  0.36588661  0.84776769  0.42355104  1
  C  C280  1  0.09488054  0.67091954  0.31371826  1
  C  C281  1  0.34769826  0.96361235  0.44681278  1
  Zn  Zn282  1  0.46563931  0.60632340  0.34165941  1
  C  C283  1  0.08282715  0.57736156  0.32152441  1
  C  C284  1  0.05590995  0.62646762  0.30834431  1
  Zn  Zn285  1  0.35284049  0.56853754  0.39500460  1
  C  C286  1  0.13924656  0.57495803  0.33938219  1
  H  H287  1  0.30354016  0.85799265  0.35989787  1
  H  H288  1  0.17792166  0.70423279  0.32900745  1
  H  H289  1  0.08440306  0.98123168  0.32881591  1
  Zn  Zn290  1  0.35694996  0.68626211  0.34777252  1
  H  H291  1  0.17512750  0.82966567  0.34006773  1
  C  C292  1  0.16544654  0.86811083  0.35773862  1
  Zn  Zn293  1  0.42220207  0.67650012  0.45370325  1
  H  H294  1  0.05866847  0.54047198  0.31694905  1
  C  C295  1  0.17144981  0.92793672  0.43573357  1
  O  O296  1  0.12582407  0.84039013  0.25398133  1
  O  O297  1  0.40652243  0.76458210  0.44152176  1
  C  C298  1  0.32291697  0.93242753  0.40324931  1
  O  O299  1  0.26405340  0.66332448  0.35979121  1
  C  C300  1  0.37686940  0.79133558  0.40860372  1
  O  O301  1  0.35387036  0.76794141  0.36730739  1
  C  C302  1  0.23712350  0.62058656  0.36032877  1
  C  C303  1  0.15089165  0.66917052  0.32975243  1
  C  C304  1  0.18370372  0.87840189  0.41164906  1
  C  C305  1  0.32821038  0.87923325  0.39049861  1
  O  O306  1  0.18711684  0.94370374  0.48750798  1
  H  H307  1  0.15702397  0.53647921  0.34883354  1
  C  C308  1  0.17442920  0.61940997  0.34520991  1
  C  C309  1  0.38680862  0.93127513  0.47736005  1
  C  C310  1  0.11548970  0.95363383  0.35102052  1
  C  C311  1  0.13376610  0.90610211  0.32654050  1
  C  C312  1  0.13595600  0.96256002  0.40460572  1
  C  C313  1  0.11901039  0.88871182  0.26776072  1
  H  H314  1  0.21224462  0.84847447  0.43073789  1
  O  O315  1  0.35517225  0.56851889  0.48837247  1
  O  O316  1  0.00261759  0.63482353  0.28703897  1
  O  O317  1  0.39391004  0.69342082  0.26451903  1
  H  H318  1  0.12001411  0.99912666  0.42539419  1
  O  O319  1  0.47246709  0.64396387  0.26327916  1
  H  H320  1  0.42994326  0.85349176  0.48620154  1
  C  C321  1  0.42036161  0.75963525  0.69181097  1
  H  H322  1  0.33079785  0.58264020  0.66368670  1
  O  O323  1  0.47869771  0.65699994  0.68345239  1
  C  C324  1  0.26293312  0.54377932  0.55187816  1
  C  C325  1  0.16172341  0.85944850  0.69348857  1
  O  O326  1  0.36472045  0.65121461  0.51734354  1
  O  O327  1  0.14977255  0.55523083  0.65848565  1
  C  C328  1  0.19505985  0.56890333  0.62469901  1
  O  O329  1  0.47780481  0.65831038  0.59111655  1
  C  C330  1  0.03073225  0.55977790  0.71075469  1
  H  H331  1  0.16773382  0.77897176  0.73444101  1
  H  H332  1  0.38766400  0.83278159  0.72656341  1
  C  C333  1  0.21844287  0.61989403  0.62525102  1
  C  C334  1  0.08824606  0.57096807  0.74030596  1
  H  H335  1  0.36551721  0.80894036  0.54681458  1
  C  C336  1  0.21762387  0.53175847  0.58652342  1
  H  H337  1  0.20158334  0.65323470  0.65425561  1
  C  C338  1  0.25476809  0.91468437  0.57350316  1
  H  H339  1  0.19087122  0.87558286  0.52000207  1
  C  C340  1  0.26142537  0.63380812  0.58689648  1
  C  C341  1  0.27688952  0.97149842  0.57309127  1
  C  C342  1  0.28709426  0.59542655  0.55358958  1
  C  C343  1  0.43305511  0.73176367  0.64403192  1
  H  H344  1  0.03546268  0.53284248  0.67559177  1
  C  C345  1  0.46549177  0.67859697  0.63713161  1
  C  C346  1  0.38037247  0.79815634  0.58986105  1
  C  C347  1  0.21103085  0.90367186  0.61658489  1
  H  H348  1  0.21689728  0.93502374  0.64890646  1
  H  H349  1  0.16696804  0.90729453  0.59672640  1
  O  O350  1  0.20099978  0.85373388  0.65372463  1
  C  C351  1  0.34530204  0.58452083  0.70777901  1
  C  C352  1  0.13004261  0.90667844  0.69867948  1
  C  C353  1  0.22664371  0.90695351  0.51706325  1
  C  C354  1  0.41402871  0.75290509  0.59306576  1
  H  H355  1  0.13982316  0.93896499  0.66935027  1
  H  H356  1  0.28001315  0.67381828  0.58618430  1
  C  C357  1  0.39300268  0.80893819  0.68544169  1
  C  C358  1  0.30694692  0.87752579  0.57642170  1
  H  H359  1  0.29457242  0.83421646  0.57117614  1
  H  H360  1  0.33832335  0.88541929  0.54098849  1
  O  O361  1  0.33321736  0.87460321  0.63072452  1
  C  C362  1  0.36787303  0.82938987  0.63706313  1
  H  H363  1  0.16582740  0.61426022  0.71847396  1
  C  C364  1  0.12806372  0.59591451  0.69756077  1
  H  H365  1  0.43347772  0.74161602  0.73434952  1
  H  H366  1  0.41975992  0.72491466  0.55623238  1
  H  H367  1  0.28172211  0.51108277  0.52554032  1
  H  H368  1  0.10804368  0.63101118  0.67352288  1
  C  C369  1  0.36729405  0.53605044  0.73211556  1
  H  H370  1  0.31748645  0.97522903  0.55012006  1
  C  C371  1  0.34683613  0.63041747  0.74037099  1
  C  C372  1  0.14762974  0.81938206  0.73327381  1
  C  C373  1  0.33791878  0.60704533  0.51642278  1
  H  H374  1  0.33855638  0.67057159  0.72176175  1
  H  H375  1  0.41670411  0.95127337  0.50805993  1
  H  H376  1  0.00146440  0.54097465  0.74131551  1
  O  O377  1  0.00515307  0.61038956  0.69394047  1
  C  C378  1  0.08813009  0.91330870  0.73796808  1
  H  H379  1  0.06794064  0.95341109  0.74133719  1
  C  C380  1  0.20277910  0.93056900  0.91460589  1
  H  H381  1  0.41671465  0.65815139  0.88956346  1
  C  C382  1  0.37625331  0.67954443  0.88299771  1
  H  H383  1  0.25754671  0.81961062  0.85573205  1
  H  H384  1  0.45985123  0.75868419  0.86557710  1
  H  H385  1  0.08869869  0.79088022  0.79891465  1
  C  C386  1  0.37356551  0.58255848  0.81831731  1
  C  C387  1  0.08343362  0.61204118  0.78413585  1
  H  H388  1  0.38478224  0.58153590  0.86285718  1
  O  O389  1  0.13674988  0.64898232  0.80117136  1
  C  C390  1  0.12630031  0.69085865  0.83451614  1
  C  C391  1  0.17107346  0.72113391  0.85721307  1
  H  H392  1  0.20127718  0.78014122  0.91480820  1
  C  C393  1  0.25352601  0.85227908  0.88526221  1
  O  O394  1  0.05482839  0.81085035  0.99278475  1
  C  C395  1  0.35758978  0.63344162  0.79745512  1
  O  O396  1  0.46800329  0.80206912  0.93619759  1
  O  O397  1  0.35882409  0.68239462  0.82582419  1
  C  C398  1  0.07163407  0.70256044  0.85735892  1
  C  C399  1  0.23851863  0.93713275  0.96060769  1
  H  H400  1  0.07810735  0.59756668  0.82880752  1
  H  H401  1  0.02156867  0.75361883  0.91032801  1
  H  H402  1  0.05257960  0.64227234  0.77602845  1
  C  C403  1  0.38507601  0.73087418  0.91742501  1
  H  H404  1  0.03104526  0.68386461  0.84025018  1
  H  H405  1  0.49958716  0.63694270  0.94514717  1
  H  H406  1  0.34041804  0.65607676  0.90493612  1
  H  H407  1  0.23353002  0.97211181  0.99127651  1
  O  O408  1  0.00930138  0.84168548  0.84642091  1
  H  H409  1  0.18007467  0.88535745  0.83894774  1
  C  C410  1  0.10952160  0.77038515  0.92077939  1
  C  C411  1  0.06493466  0.74149051  0.89679533  1
  C  C412  1  0.33963041  0.77136076  0.90554420  1
  H  H413  1  0.34706808  0.78492388  0.86074549  1
  H  H414  1  0.29670583  0.75168292  0.90608427  1
  O  O415  1  0.33360950  0.82062445  0.94113420  1
  C  C416  1  0.29252891  0.85653468  0.93072866  1
  C  C417  1  0.28086756  0.89806242  0.96831259  1
  C  C418  1  0.10360690  0.82357849  0.77132529  1
  C  C419  1  0.10363465  0.80858856  0.96991367  1
  C  C420  1  0.16396977  0.75867789  0.89848047  1
  C  C421  1  0.20880387  0.88868474  0.87595869  1
  C  C422  1  0.37784200  0.71439169  0.97883611  1
  H  H423  1  0.21317126  0.71180192  0.84015520  1
  H  H424  1  0.47675130  0.71780291  0.92469922  1
  C  C425  1  0.15712299  0.97060899  0.90413813  1
  O  O426  1  0.12568941  0.97066222  0.86344261  1
  C  C427  1  0.44477143  0.75016884  0.91031723  1
  C  C428  1  0.02490303  0.88008206  0.81514293  1
  H  H429  1  0.33318774  0.70090245  0.98872159  1
  O  O430  1  0.14351164  0.83811395  0.98295797  1
  C  C431  1  0.10954473  0.51949524  0.76114587  1
  H  H432  1  0.15201672  0.52660302  0.78286328  1
  C  C433  1  0.07365308  0.87185912  0.77562603  1
  C  C434  1  0.38144890  0.53652164  0.78888704  1
  Zn  Zn435  1  0.90181448  0.06957879  0.16928464  1
  O  O436  1  0.85270239  0.27122283  0.16630518  1
  C  C437  1  0.96267843  0.43101678  0.16808940  1
  C  C438  1  0.56833974  0.20195712  0.14617458  1
  C  C439  1  0.57595472  0.16539880  0.05395344  1
  C  C440  1  0.91273061  0.35104649  0.16864591  1
  C  C441  1  0.86490274  0.38074876  0.18614229  1
  H  H442  1  0.58119456  0.46012916  0.09788855  1
  C  C443  1  0.61154514  0.32600458  0.12384379  1
  C  C444  1  0.60808901  0.30971864  0.06695607  1
  C  C445  1  0.90192454  0.29174106  0.16707857  1
  C  C446  1  0.60293685  0.39202306  0.19973898  1
  O  O447  1  0.61063882  0.35498820  0.23418814  1
  Zn  Zn448  1  0.93861497  0.18676416  0.11280554  1
  O  O449  1  0.87830567  0.14074322  0.13075348  1
  O  O450  1  0.73984807  0.16129309  0.16676224  1
  C  C451  1  0.96321334  0.37815569  0.15464803  1
  O  O452  1  0.74706296  0.13820702  0.07791475  1
  C  C453  1  0.62478157  0.18701369  0.15695598  1
  O  O454  1  0.94375316  0.26154148  0.16207462  1
  C  C455  1  0.58574982  0.39887944  0.03727660  1
  Zn  Zn456  1  0.82675720  0.18646863  0.17072019  1
  O  O457  1  0.93783178  0.20940185  0.02780374  1
  O  O458  1  0.83156033  0.03315122  0.05382847  1
  C  C459  1  0.58918009  0.41693714  0.09136421  1
  O  O460  1  0.58708948  0.43526600  0.21721780  1
  C  C461  1  0.60357494  0.38136319  0.13536856  1
  H  H462  1  0.61297711  0.26773778  0.05785842  1
  Zn  Zn463  1  0.83723584  0.11464530  0.06002643  1
  H  H464  1  0.61645439  0.29458347  0.15639160  1
  H  H465  1  0.65831421  0.13533385  0.02241099  1
  H  H466  1  0.64632214  0.19694426  0.19760344  1
  C  C467  1  0.71772803  0.15252178  0.11881499  1
  C  C468  1  0.54151313  0.19012874  0.09573557  1
  C  C469  1  0.65552446  0.16636135  0.11148854  1
  C  C470  1  0.91874831  0.46489925  0.18971966  1
  H  H471  1  0.54831897  0.22645566  0.17979553  1
  H  H472  1  0.82598737  0.35688021  0.19104858  1
  C  C473  1  0.63235755  0.15308455  0.05841045  1
  H  H474  1  0.82936504  0.45631068  0.21391660  1
  C  C475  1  0.59491782  0.34459190  0.02179108  1
  C  C476  1  0.86744772  0.43521530  0.19687470  1
  H  H477  1  0.55611305  0.15704038  0.01390308  1
  O  O478  1  0.85252518  0.00508188  0.13911217  1
  O  O479  1  0.99537424  0.05753274  0.17710758  1
  H  H480  1  0.57682253  0.42902665  0.00363839  1
  H  H481  1  0.72926934  0.06713069  0.36419431  1
  O  O482  1  0.87383020  0.08136531  0.25260876  1
  H  H483  1  0.83368097  0.20179451  0.35749898  1
  C  C484  1  0.89364620  0.40941949  0.32313740  1
  Zn  Zn485  1  0.69524881  0.42964926  0.37326632  1
  C  C486  1  0.87803155  0.44435463  0.36517321  1
  O  O487  1  0.65012816  0.24522996  0.39459725  1
  O  O488  1  0.66696992  0.42486715  0.45839079  1
  O  O489  1  0.79898652  0.46700654  0.42688821  1
  C  C490  1  0.68672681  0.13482641  0.38806113  1
  C  C491  1  0.81627862  0.44795900  0.38326576  1
  C  C492  1  0.60524607  0.11742400  0.44935836  1
  C  C493  1  0.92091826  0.47354733  0.39651131  1
  C  C494  1  0.81356560  0.15108280  0.42731747  1
  Zn  Zn495  1  0.57514625  0.41450616  0.31215369  1
  H  H496  1  0.96049221  0.37935747  0.26779404  1
  H  H497  1  0.71509872  0.16104065  0.36376302  1
  O  O498  1  0.63131430  0.37638831  0.35764763  1
  C  C499  1  0.83824404  0.11703743  0.33830917  1
  O  O500  1  0.51841054  0.34028662  0.40501211  1
  Zn  Zn501  1  0.60900804  0.32022041  0.40916988  1
  O  O502  1  0.85519248  0.16802263  0.25722020  1
  O  O503  1  0.58265390  0.22536011  0.45233845  1
  H  H504  1  0.81429844  0.02004828  0.43354427  1
  C  C505  1  0.69643438  0.08001705  0.39157658  1
  C  C506  1  0.82824800  0.16189742  0.37299294  1
  C  C507  1  0.66407216  0.04021323  0.41944986  1
  C  C508  1  0.61790917  0.06358820  0.44828663  1
  H  H509  1  0.85818681  0.38486512  0.30448143  1
  C  C510  1  0.64301219  0.15268235  0.42144388  1
  C  C511  1  0.62080437  0.20997839  0.42140856  1
  C  C512  1  0.80194687  0.10153904  0.45490169  1
  O  O513  1  0.78050118  0.42526253  0.34851642  1
  C  C514  1  0.95001761  0.40472375  0.30421700  1
  H  H515  1  0.84438179  0.02711445  0.34059068  1
  C  C516  1  0.97476869  0.47006908  0.37751098  1
  C  C517  1  0.83411784  0.06549430  0.36203878  1
  C  C518  1  0.81582610  0.06001507  0.41703907  1
  H  H519  1  0.81165597  0.18404102  0.45888234  1
  C  C520  1  0.85512921  0.12261293  0.27822656  1
  C  C521  1  0.99126735  0.43731334  0.32992577  1
  O  O522  1  0.59536107  0.49989607  0.32000732  1
  H  H523  1  0.59006735  0.03856773  0.47330295  1
  H  H524  1  0.56609910  0.13678799  0.46954968  1
  C  C525  1  0.67503720  0.38799010  0.49385025  1
  H  H526  1  0.72885381  0.04300367  0.49806322  1
  O  O527  1  0.64813687  0.34360519  0.48828615  1
  H  H528  1  0.63848493  0.38835704  0.63541114  1
  O  O529  1  0.98002801  0.44298996  0.66317548  1
  H  H530  1  0.79894914  0.02380157  0.53136572  1
  H  H531  1  0.82152918  0.03893386  0.61799071  1
  H  H532  1  0.81987664  0.37526596  0.72317998  1
  H  H533  1  0.77456165  0.34523250  0.65459144  1
  O  O534  1  0.84240654  0.43639095  0.65881075  1
  C  C535  1  0.79900531  0.42346447  0.62242845  1
  H  H536  1  0.86604007  0.04002306  0.68333093  1
  C  C537  1  0.76277353  0.05393752  0.53099286  1
  C  C538  1  0.51744198  0.30653363  0.62865770  1
  C  C539  1  0.62479984  0.38360401  0.67853257  1
  C  C540  1  0.76697586  0.37515097  0.62130568  1
  H  H541  1  0.87134712  0.36190903  0.67042680  1
  C  C542  1  0.72521127  0.36109319  0.58299993  1
  C  C543  1  0.78424255  0.45974653  0.58025409  1
  C  C544  1  0.60919429  0.19774536  0.68741357  1
  C  C545  1  0.73717410  0.06002724  0.59023436  1
  H  H546  1  0.56364418  0.26708553  0.72479668  1
  O  O547  1  0.78072026  0.10377879  0.50836122  1
  C  C548  1  0.57906736  0.23620579  0.58635318  1
  H  H549  1  0.67077707  0.02210703  0.63871307  1
  H  H550  1  0.63138403  0.17671326  0.55362954  1
  C  C551  1  0.85594150  0.39396927  0.69975647  1
  H  H552  1  0.67099676  0.10504034  0.55220213  1
  C  C553  1  0.61597643  0.19352102  0.59167944  1
  C  C554  1  0.78519254  0.06722067  0.63009826  1
  H  H555  1  0.77238160  0.05697308  0.67342271  1
  C  C556  1  0.59022067  0.42413727  0.70085961  1
  C  C557  1  0.74499953  0.44692587  0.53920019  1
  C  C558  1  0.57464813  0.24352339  0.68672811  1
  O  O559  1  0.80672667  0.12299566  0.64897031  1
  H  H560  1  0.56577250  0.24975133  0.54522333  1
  C  C561  1  0.87437647  0.07560993  0.70614561  1
  C  C562  1  0.55723660  0.26071410  0.63420313  1
  H  H563  1  0.70573452  0.31966522  0.58710036  1
  O  O564  1  0.50384549  0.33398000  0.67107165  1
  C  C565  1  0.70043620  0.10800242  0.59118972  1
  H  H566  1  0.72372906  0.14517483  0.58762379  1
  C  C567  1  0.63078343  0.16586527  0.64306874  1
  O  O568  1  0.66644823  0.12467217  0.64630659  1
  H  H569  1  0.73444823  0.47314512  0.50636937  1
  C  C570  1  0.71582704  0.39755047  0.54016137  1
  C  C571  1  0.57462914  0.47406594  0.67056123  1
  H  H572  1  0.80307168  0.49887783  0.58246583  1
  C  C573  1  0.70348785  0.01172962  0.60573970  1
  C  C574  1  0.84766971  0.12258000  0.68735342  1
  H  H575  1  0.65611528  0.30393746  0.69135298  1
  C  C576  1  0.63713048  0.33882395  0.71074153  1
  O  O577  1  0.60258591  0.48122250  0.62715259  1
  C  C578  1  0.95847718  0.41268761  0.71577510  1
  H  H579  1  0.97167610  0.37200592  0.69966020  1
  H  H580  1  0.87961831  0.49613688  0.74218840  1
  H  H581  1  0.85248323  0.20646473  0.70584296  1
  C  C582  1  0.86879025  0.16858024  0.71636552  1
  H  H583  1  0.62386742  0.18963941  0.73124605  1
  C  C584  1  0.90096855  0.41098769  0.74217712  1
  H  H585  1  0.99132141  0.43024207  0.74487314  1
  C  C586  1  0.91666769  0.07559322  0.74684091  1
  O  O587  1  0.87243361  0.31825889  0.78658265  1
  C  C588  1  0.60296412  0.26946078  0.95472175  1
  H  H589  1  0.92915840  0.34644746  0.87907514  1
  H  H590  1  0.54099851  0.20564600  0.84411905  1
  H  H591  1  0.79297878  0.04909850  0.98080734  1
  C  C592  1  0.90728481  0.16951987  0.75971155  1
  C  C593  1  0.98164146  0.11684768  0.81580181  1
  C  C594  1  0.61830079  0.33254461  0.76719467  1
  C  C595  1  0.77766779  0.07054200  0.94419247  1
  H  H596  1  0.84037325  0.45315869  0.79046298  1
  C  C597  1  0.90474975  0.36812370  0.78750057  1
  C  C598  1  0.91216518  0.30427427  0.87943244  1
  C  C599  1  0.87740963  0.28760318  0.83407828  1
  H  H600  1  0.83076474  0.21850713  0.81154032  1
  H  H601  1  0.89552696  0.38891038  0.82808761  1
  C  C602  1  0.58861133  0.37812009  0.78734586  1
  C  C603  1  0.73880942  0.11124615  0.95149700  1
  H  H604  1  0.95049526  0.35327404  0.79247315  1
  C  C605  1  0.89745523  0.21896453  0.93324369  1
  H  H606  1  0.63983798  0.31852268  0.87130488  1
  H  H607  1  0.56301419  0.31541769  0.85725752  1
  C  C608  1  0.60592839  0.29311478  0.85698504  1
  C  C609  1  0.79707203  0.06208797  0.88903759  1
  C  C610  1  0.59894266  0.24646669  0.89644384  1
  H  H611  1  0.91298282  0.20681036  0.78440330  1
  O  O612  1  0.62821377  0.28857566  0.79624714  1
  C  C613  1  0.77916685  0.09333577  0.84381216  1
  H  H614  1  0.79998620  0.08692465  0.80054467  1
  H  H615  1  0.93894369  0.29328896  0.96197789  1
  C  C616  1  0.54227227  0.22412246  0.88766662  1
  H  H617  1  0.84599476  0.15794727  0.89056333  1
  C  C618  1  0.85561151  0.23746225  0.84535246  1
  C  C619  1  0.64849910  0.20750714  0.88015715  1
  C  C620  1  0.91885122  0.27293403  0.92560970  1
  H  H621  1  0.68666820  0.23231895  0.86406917  1
  O  O622  1  0.67183392  0.18150669  0.92674609  1
  C  C623  1  0.71648221  0.14473585  0.91153257  1
  C  C624  1  0.73746865  0.13102509  0.85763479  1
  C  C625  1  0.86332807  0.20022216  0.89029590  1
  H  H626  1  0.57252902  0.37481985  0.83313259  1
  O  O627  1  0.58975089  0.32812655  0.96821662  1
  H  H628  1  0.63511921  0.18215420  0.84390905  1
  O  O629  1  0.99830819  0.16141044  0.83500780  1
  C  C630  1  0.93488187  0.12216027  0.77363518  1
  C  C631  1  0.88441513  0.46209423  0.77200075  1
  O  O632  1  0.85239993  0.00654606  0.82865581  1
  H  H633  1  0.57222028  0.24720476  0.98385497  1
  H  H634  1  0.72374953  0.15421315  0.82249452  1
  H  H635  1  0.64771812  0.26947371  0.97424614  1
  H  H636  1  0.99929812  0.42182822  0.86183470  1
  O  O637  1  0.51781577  0.18749278  0.93453947  1
  O  O638  1  0.91367397  0.48993801  0.81703728  1
  H  H639  1  0.50590902  0.25615618  0.89334253  1
  C  C640  1  0.83464005  0.01370913  0.87677821  1
  H  H641  1  0.54857225  0.45536168  0.77653056  1
  H  H642  1  0.93381653  0.03818367  0.75825855  1
  O  O643  1  0.88776638  0.14468764  0.98795438  1
  C  C644  1  0.91118063  0.19094571  0.98605427  1
  H  H645  1  0.72351494  0.11606798  0.99499710  1
  C  C646  1  0.57620989  0.42379788  0.75827481  1
  H  H647  1  0.94968586  0.97964552  0.19028950  1
  H  H648  1  0.51371989  0.75686422  0.06099379  1
  C  C649  1  0.88529948  0.86055606  0.20120136  1
  H  H650  1  0.77240133  0.73407334  0.15081022  1
  C  C651  1  0.82530495  0.99967874  0.09455632  1
  C  C652  1  0.77151881  0.92036005  0.12804587  1
  C  C653  1  0.54028837  0.78714371  0.08355050  1
  H  H654  1  0.88106456  0.82138445  0.17945110  1
  H  H655  1  0.84601736  0.55012479  0.20626215  1
  O  O656  1  0.85918532  0.67568108  0.19702246  1
  C  C657  1  0.86222043  0.70697814  0.15190546  1
  C  C658  1  0.81577898  0.73810107  0.13136038  1
  H  H659  1  0.78395603  0.79701891  0.07203405  1
  H  H660  1  0.93908926  0.61350684  0.18252183  1
  C  C661  1  0.96042106  0.88407290  0.13260553  1
  C  C662  1  0.91992927  0.74344936  0.07334188  1
  C  C663  1  0.75326850  0.95339139  0.03247382  1
  C  C664  1  0.92286819  0.89961401  0.18197327  1
  C  C665  1  0.91305515  0.71360569  0.12137526  1
  H  H666  1  0.58155064  0.68239325  0.11961195  1
  H  H667  1  0.59072812  0.73590798  0.17402236  1
  C  C668  1  0.71130284  0.91614898  0.02880876  1
  H  H669  1  0.96103791  0.74553288  0.05040657  1
  C  C670  1  0.60034749  0.76108780  0.08956697  1
  C  C671  1  0.78346496  0.95603235  0.08459399  1
  H  H672  1  0.74935673  0.64255052  0.21118212  1
  C  C673  1  0.87327584  0.77403105  0.05814523  1
  C  C674  1  0.60427531  0.72017252  0.13239068  1
  H  H675  1  0.95099971  0.68965547  0.13319962  1
  H  H676  1  0.71524193  0.85885830  0.15942458  1
  C  C677  1  0.61380027  0.73527297  0.03418996  1
  C  C678  1  0.92335201  0.94839578  0.20995934  1
  C  C679  1  0.64269143  0.80491248  0.10444941  1
  H  H680  1  0.62601553  0.82871263  0.13967122  1
  H  H681  1  0.68439394  0.78857318  0.12021567  1
  O  O682  1  0.65572691  0.84448447  0.06039857  1
  C  C683  1  0.69606735  0.88095678  0.07285864  1
  C  C684  1  0.72600030  0.88569740  0.12374112  1
  H  H685  1  0.54453218  0.82377853  0.05644068  1
  H  H686  1  0.57057373  0.65589873  0.19258800  1
  C  C687  1  0.91675960  0.64012239  0.21141368  1
  C  C688  1  0.82049722  0.77327144  0.08778260  1
  H  H689  1  0.65549987  0.71372293  0.03739221  1
  O  O690  1  0.66083920  0.69901503  0.15821322  1
  C  C691  1  0.65767290  0.65921773  0.19485117  1
  H  H692  1  0.94428051  0.67391024  0.22441691  1
  C  C693  1  0.60587450  0.63632898  0.21253728  1
  O  O694  1  0.96158421  0.83632333  0.11768747  1
  H  H695  1  0.79810949  0.92219174  0.16670079  1
  O  O696  1  0.50496779  0.79402899  0.13339482  1
  C  C697  1  0.70446160  0.63151489  0.22081401  1
  O  O698  1  0.99680656  0.91812622  0.11622405  1
  H  H699  1  0.61564242  0.76894911  0.00160868  1
  C  C700  1  0.87698885  0.81353479  0.01154197  1
  O  O701  1  0.92722752  0.51668628  0.19752824  1
  C  C702  1  0.88429680  0.54885509  0.23465270  1
  O  O703  1  0.56963166  0.69638138  0.00883018  1
  H  H704  1  0.50252871  0.62529586  0.06169571  1
  H  H705  1  0.50013263  0.60748106  0.15899995  1
  C  C706  1  0.85404171  0.87171056  0.24923062  1
  O  O707  1  0.87525776  0.60520261  0.35915364  1
  C  C708  1  0.60650937  0.69242923  0.35401395  1
  C  C709  1  0.58995766  0.74238375  0.43898970  1
  C  C710  1  0.64062586  0.73342813  0.33391227  1
  H  H711  1  0.81965643  0.62505638  0.28566479  1
  H  H712  1  0.96485656  0.57077920  0.32200082  1
  H  H713  1  0.89296356  0.99903266  0.27346225  1
  C  C714  1  0.84003609  0.62613692  0.39611603  1
  C  C715  1  0.84321368  0.61652106  0.45758667  1
  C  C716  1  0.73218828  0.65560627  0.41847587  1
  O  O717  1  0.53884468  0.60959199  0.39993654  1
  C  C718  1  0.86562260  0.62399186  0.29893666  1
  C  C719  1  0.85251564  0.91980448  0.27980990  1
  H  H720  1  0.77352274  0.86805799  0.46735649  1
  C  C721  1  0.88884613  0.95816533  0.25597803  1
  C  C722  1  0.78720667  0.65507420  0.38135272  1
  H  H723  1  0.87250796  0.66857895  0.29858808  1
  C  C724  1  0.73911496  0.90930748  0.39488705  1
  H  H725  1  0.87165187  0.52339324  0.27088407  1
  C  C726  1  0.73358512  0.62743328  0.47168919  1
  H  H727  1  0.69925725  0.68672787  0.41373311  1
  C  C728  1  0.71820655  0.96443561  0.38090137  1
  H  H729  1  0.63608254  0.81260602  0.44776347  1
  C  C730  1  0.64090061  0.52372363  0.30906074  1
  C  C731  1  0.76059121  0.90851656  0.45215630  1
  H  H732  1  0.81643995  0.86438500  0.36599048  1
  C  C733  1  0.78309479  0.89243754  0.34832139  1
  C  C734  1  0.64674441  0.57111144  0.27254517  1
  H  H735  1  0.75874524  0.87412689  0.31143081  1
  O  O736  1  0.81615071  0.93396833  0.32455849  1
  H  H737  1  0.59555403  0.65552230  0.32989173  1
  H  H738  1  0.75455298  0.99500575  0.37766727  1
  C  C739  1  0.58161166  0.69577070  0.40633284  1
  Zn  Zn740  1  0.77306784  0.57628024  0.41589857  1
  H  H741  1  0.78923814  0.68320620  0.34459559  1
  H  H742  1  0.55533528  0.58354136  0.26746647  1
  H  H743  1  0.82183657  0.84108938  0.25784528  1
  C  C744  1  0.69164493  0.86865008  0.39125531  1
  H  H745  1  0.68980283  0.84612451  0.42989076  1
  H  H746  1  0.64939408  0.88766340  0.38328556  1
  O  O747  1  0.68729945  0.82050243  0.34968338  1
  C  C748  1  0.65483411  0.77938644  0.36480558  1
  C  C749  1  0.62600385  0.77886288  0.41827131  1
  H  H750  1  0.69669615  0.96034449  0.33962816  1
  C  C751  1  0.70141222  0.58770598  0.25503127  1
  H  H752  1  0.65924213  0.72988600  0.29149197  1
  H  H753  1  0.88516045  0.61483447  0.47700465  1
  C  C754  1  0.54509744  0.65190573  0.42723659  1
  H  H755  1  0.57112722  0.74868377  0.48163206  1
  H  H756  1  0.72941634  0.92581590  0.48508913  1
  O  O757  1  0.51735912  0.65965182  0.47421372  1
  C  C758  1  0.96589626  0.58873107  0.27949389  1
  H  H759  1  0.73723739  0.56675610  0.27267469  1
  C  C760  1  0.79003234  0.61611619  0.49569782  1
  O  O761  1  0.81689939  0.93130809  0.48189584  1
  O  O762  1  0.67607924  0.98826637  0.41976215  1
  O  O763  1  0.68882047  0.50391645  0.32588442  1
  H  H764  1  0.90848266  0.50150585  0.43091655  1
  C  C765  1  0.59704602  0.59467743  0.25042370  1
  C  C766  1  0.90524109  0.60044881  0.25650477  1
  H  H767  1  0.60791472  0.91778928  0.49192870  1
  H  H768  1  0.98233228  0.55698329  0.25141366  1
  H  H769  1  0.83244965  0.52228410  0.66806331  1
  C  C770  1  0.82005605  0.92722983  0.53676960  1
  H  H771  1  0.79839366  0.61695143  0.54242538  1
  O  O772  1  0.67034363  0.98180085  0.55581588  1
  Zn  Zn773  1  0.64590531  0.66856501  0.67689046  1
  C  C774  1  0.60472397  0.84888189  0.54420659  1
  C  C775  1  0.85621792  0.56053158  0.66888228  1
  O  O776  1  0.54202432  0.50880238  0.69332670  1
  C  C777  1  0.82593684  0.60810903  0.66507268  1
  C  C778  1  0.85374203  0.65800210  0.66338114  1
  H  H779  1  0.75274861  0.87684264  0.65509020  1
  C  C780  1  0.84416731  0.90363302  0.71722750  1
  C  C781  1  0.91562524  0.56262889  0.67582962  1
  C  C782  1  0.76241626  0.61041647  0.65746342  1
  O  O783  1  0.73473580  0.65348810  0.65972959  1
  O  O784  1  0.73833657  0.56594178  0.65121847  1
  Zn  Zn785  1  0.64819030  0.55772464  0.61019812  1
  O  O786  1  0.59692611  0.62165308  0.62755822  1
  H  H787  1  0.73197512  0.97868433  0.62199474  1
  H  H788  1  0.93956162  0.69037218  0.67502458  1
  H  H789  1  0.68925166  0.93458555  0.64844590  1
  C  C790  1  0.62078072  0.90036445  0.53139816  1
  C  C791  1  0.86972687  0.94508206  0.56611302  1
  H  H792  1  0.90365548  0.96302527  0.54256311  1
  Zn  Zn793  1  0.53184015  0.59085667  0.67943293  1
  C  C794  1  0.62175985  0.82722736  0.59565146  1
  H  H795  1  0.73897756  0.88594167  0.55529115  1
  C  C796  1  0.91208403  0.65506908  0.67417806  1
  C  C797  1  0.94739860  0.61001671  0.68119348  1
  C  C798  1  0.65440984  0.93283366  0.56675065  1
  C  C799  1  0.60846824  0.76950191  0.60764590  1
  O  O800  1  0.58097270  0.74323550  0.57377609  1
  O  O801  1  0.62553591  0.75068345  0.65383794  1
  Zn  Zn802  1  0.56485691  0.66023903  0.55767426  1
  C  C803  1  0.77807396  0.90400643  0.57368335  1
  C  C804  1  0.87588664  0.94417104  0.62333126  1
  C  C805  1  0.64830679  0.85859265  0.63590817  1
  C  C806  1  0.78405825  0.89963983  0.62947301  1
  C  C807  1  0.66428029  0.90967118  0.62053454  1
  C  C808  1  0.83496685  0.91657809  0.65620762  1
  H  H809  1  0.65947489  0.84161701  0.67654601  1
  H  H810  1  0.83202597  0.69522732  0.65449004  1
  H  H811  1  0.58206533  0.82208508  0.51668028  1
  H  H812  1  0.93892143  0.52541090  0.67380354  1
  O  O813  1  0.67530391  0.57018461  0.52344299  1
  O  O814  1  0.81172626  0.87703826  0.74549330  1
  O  O815  1  0.89075753  0.92174628  0.73655016  1
  H  H816  1  0.91588271  0.96286200  0.64280124  1
  O  O817  1  0.64767532  0.65308969  0.51438990  1
  C  C818  1  0.68085295  0.61569504  0.50388296  1
  Zn  Zn819  1  0.82215104  0.81902656  0.82369582  1
  O  O820  1  0.73015726  0.89216740  0.90649165  1
  O  O821  1  0.87339715  0.86745705  0.87166972  1
  Zn  Zn822  1  0.93723527  0.82461819  0.89758385  1
  C  C823  1  0.86614333  0.57581824  0.79232192  1
  H  H824  1  0.68439150  0.68145683  0.85293694  1
  C  C825  1  0.90443362  0.54292847  0.82164503  1
  H  H826  1  0.66190387  0.71560835  0.94515416  1
  O  O827  1  0.84902359  0.98166291  0.91465400  1
  C  C828  1  0.89491475  0.65635777  0.83876936  1
  C  C829  1  0.85958117  0.63037624  0.79864008  1
  C  C830  1  0.93589582  0.57226789  0.86203047  1
  H  H831  1  0.52297651  0.88764772  0.96646138  1
  H  H832  1  0.64389309  0.76553001  0.85846494  1
  C  C833  1  0.89321806  0.71570123  0.84320959  1
  C  C834  1  0.55159052  0.85887384  0.94501226  1
  O  O835  1  0.92690950  0.73607221  0.87744805  1
  C  C836  1  0.70443416  0.85190133  0.88638988  1
  C  C837  1  0.56278626  0.78053204  0.89559013  1
  C  C838  1  0.64437337  0.84120338  0.90208468  1
  Zn  Zn839  1  0.90609298  0.92828259  0.83191787  1
  C  C840  1  0.61855393  0.79318614  0.88015785  1
  H  H841  1  0.54663789  0.74347658  0.88146358  1
  H  H842  1  0.95913526  0.64522080  0.90347285  1
  H  H843  1  0.83330898  0.65471932  0.77083924  1
  H  H844  1  0.84109410  0.55619618  0.75992912  1
  O  O845  1  0.73266919  0.81956190  0.85745142  1
  C  C846  1  0.54613739  0.63053369  0.86986789  1
  C  C847  1  0.53997303  0.64654517  0.92415527  1
  C  C848  1  0.59912421  0.64391787  0.84545959  1
  C  C849  1  0.64118765  0.67257710  0.87191767  1
  O  O850  1  0.85520987  0.73966966  0.81561887  1
  C  C851  1  0.52304188  0.81188916  0.92634052  1
  C  C852  1  0.60465179  0.62848871  0.78498051  1
  C  C853  1  0.93191157  0.62614719  0.87260278  1
  C  C854  1  0.60753996  0.87396897  0.93482453  1
  C  C855  1  0.63029708  0.68988324  0.92637094  1
  Zn  Zn856  1  0.82086542  0.89043785  0.92974493  1
  H  H857  1  0.96352386  0.54652636  0.88811084  1
  C  C858  1  0.57896260  0.67693533  0.95617459  1
  H  H859  1  0.62385959  0.91271374  0.95192083  1
  O  O860  1  0.92243036  0.81584786  0.98420169  1
  O  O861  1  0.65033729  0.63863512  0.75793157  1
  H  H862  1  0.69478791  0.91276075  0.98549429  1
  O  O863  1  0.56653259  0.59992707  0.76281608  1
  H  H864  1  0.51153610  0.60735908  0.84691514  1
  O  O865  1  0.83204527  0.83730842  0.99525257  1
  O  O866  1  0.99820654  0.92320188  0.81564651  1
  H  H867  1  0.76937902  0.97903019  0.99757608  1
