# generated using pymatgen
data_Zn8H72C99O38
_symmetry_space_group_name_H-M   'P 1'
_cell_length_a   18.73570679
_cell_length_b   13.70633935
_cell_length_c   61.82104463
_cell_angle_alpha   90.00000000
_cell_angle_beta   90.00000000
_cell_angle_gamma   90.00000000
_symmetry_Int_Tables_number   1
_chemical_formula_structural   Zn8H72C99O38
_chemical_formula_sum   'Zn48 H432 C594 O228'
_cell_volume   15875.51784867
_cell_formula_units_Z   6
loop_
 _symmetry_equiv_pos_site_id
 _symmetry_equiv_pos_as_xyz
  1  'x, y, z'
loop_
 _atom_site_type_symbol
 _atom_site_label
 _atom_site_symmetry_multiplicity
 _atom_site_fract_x
 _atom_site_fract_y
 _atom_site_fract_z
 _atom_site_occupancy
  C  C0  1  0.12884695  0.33535846  0.06114897  1
  H  H1  1  0.12113338  0.31248218  0.04405799  1
  C  C2  1  0.17225201  0.37932225  0.10458713  1
  C  C3  1  0.11078978  0.32151685  0.10113424  1
  C  C4  1  0.18801217  0.39040921  0.06665826  1
  C  C5  1  0.21392708  0.41241215  0.08706797  1
  C  C6  1  0.24963239  0.17260524  0.09466464  1
  H  H7  1  0.22899486  0.41617970  0.05398899  1
  C  C8  1  0.08979162  0.30351790  0.07925190  1
  H  H9  1  0.24080071  0.24168917  0.10360767  1
  C  C10  1  0.30597481  0.11488512  0.09944261  1
  C  C11  1  0.19893507  0.13031983  0.07950841  1
  H  H12  1  0.08524530  0.08490197  0.05829085  1
  H  H13  1  0.10183254  0.44101723  0.03641158  1
  Zn  Zn14  1  0.40086758  0.33056982  0.09416025  1
  H  H15  1  0.14988891  0.17157915  0.07540498  1
  C  C16  1  0.02256738  0.24524425  0.07695213  1
  H  H17  1  0.28511638  0.17521294  0.01206823  1
  C  C18  1  0.01969952  0.03267198  0.02253645  1
  C  C19  1  0.35940914  0.14852000  0.11809878  1
  C  C20  1  0.26342505  0.10058115  0.01363374  1
  H  H21  1  0.02176441  0.10891933  0.02910274  1
  H  H22  1  0.06017886  0.02815509  0.00915424  1
  O  O23  1  0.00554868  0.21950214  0.05925153  1
  O  O24  1  0.43451037  0.30995933  0.04735055  1
  O  O25  1  0.28681351  0.47083239  0.08860752  1
  C  C26  1  0.32435813  0.45338603  0.10524400  1
  H  H27  1  0.35722820  0.38826729  0.03396434  1
  O  O28  1  0.32078432  0.43526024  0.03453826  1
  C  C29  1  0.45172667  0.34760485  0.06373697  1
  H  H30  1  0.02876321  0.46340959  0.07683626  1
  C  C31  1  0.47381024  0.43472515  0.07715788  1
  C  C32  1  0.21131743  0.04462818  0.06910093  1
  H  H33  1  0.08353070  0.28614862  0.11488855  1
  H  H34  1  0.18891925  0.41309448  0.12076978  1
  C  C35  1  0.31993699  0.03042228  0.08811019  1
  C  C36  1  0.08794271  0.00253574  0.05524587  1
  O  O37  1  0.16599159  0.36903656  0.00540570  1
  H  H38  1  0.02901788  0.05260515  0.11917238  1
  O  O39  1  0.40664074  0.09949983  0.12404681  1
  C  C40  1  0.40738070  0.10329716  0.02581793  1
  H  H41  1  0.40654530  0.17149659  0.03687345  1
  H  H42  1  0.33631570  0.47831647  0.04591892  1
  H  H43  1  0.26341551  0.07937825  0.03098244  1
  H  H44  1  0.30674726  0.41075871  0.11978309  1
  O  O45  1  0.16419589  0.00193546  0.05266952  1
  C  C46  1  0.45110609  0.03854349  0.02104106  1
  O  O47  1  0.21117778  0.06901314  0.00258178  1
  Zn  Zn48  1  0.35376331  0.01865923  0.00053890  1
  O  O49  1  0.41141240  0.31993113  0.23972807  1
  H  H50  1  0.33492003  0.19909542  0.19505658  1
  C  C51  1  0.35631869  0.36046346  0.23478174  1
  C  C52  1  0.38833842  0.01136666  0.18737936  1
  H  H53  1  0.04741640  0.21634815  0.20939299  1
  C  C54  1  0.16371744  0.14542163  0.14903018  1
  H  H55  1  0.47346440  0.10649986  0.19582604  1
  O  O56  1  0.00882173  0.32778298  0.24112429  1
  C  C57  1  0.44727433  0.43095994  0.15197857  1
  C  C58  1  0.08483676  0.05675595  0.12605119  1
  O  O59  1  0.23060452  0.20998193  0.17852749  1
  C  C60  1  0.06100971  0.26239993  0.24100956  1
  O  O61  1  0.12502076  0.27335538  0.17017458  1
  C  C62  1  0.22833872  0.42538067  0.22226787  1
  O  O63  1  0.38233534  0.21435212  0.18954549  1
  C  C64  1  0.13937922  0.13750708  0.22318780  1
  O  O65  1  0.25353323  0.00926209  0.22500879  1
  H  H66  1  0.27460065  0.10022551  0.15063818  1
  H  H67  1  0.17426858  0.39986865  0.21954481  1
  C  C68  1  0.28062501  0.35183877  0.23018894  1
  C  C69  1  0.08231407  0.20153527  0.22348509  1
  C  C70  1  0.41498995  0.09411325  0.19770863  1
  Zn  Zn71  1  0.32909316  0.24223678  0.16084909  1
  H  H72  1  0.45369603  0.35906825  0.14454436  1
  C  C73  1  0.22051751  0.08681271  0.14262968  1
  H  H74  1  0.25639465  0.27558501  0.23306655  1
  H  H75  1  0.39901371  0.09234495  0.21590279  1
  O  O76  1  0.34889647  0.23574105  0.12630691  1
  H  H77  1  0.15661343  0.08727753  0.21064743  1
  C  C78  1  0.17902771  0.12602742  0.24244591  1
  C  C79  1  0.23560433  0.05324486  0.24186927  1
  H  H80  1  0.05225484  0.18508300  0.14298267  1
  O  O81  1  0.32224564  0.39608111  0.15409650  1
  C  C82  1  0.17338295  0.21983917  0.16723938  1
  C  C83  1  0.37649335  0.44963057  0.15873609  1
  C  C84  1  0.09653558  0.13501288  0.13920457  1
  O  O85  1  0.04299650  0.49146058  0.20311730  1
  C  C86  1  0.20557747  0.01124422  0.12882743  1
  H  H87  1  0.08383498  0.28243269  0.27339913  1
  C  C88  1  0.16049690  0.18025322  0.26131981  1
  H  H89  1  0.19006254  0.17081470  0.27648322  1
  H  H90  1  0.14744986  0.26865190  0.31839653  1
  C  C91  1  0.12252962  0.25566774  0.33466866  1
  H  H92  1  0.08325812  0.19339491  0.33323478  1
  C  C93  1  0.10150016  0.24083495  0.25956964  1
  H  H94  1  0.40955965  0.18944283  0.29004810  1
  C  C95  1  0.39091623  0.17559013  0.30808680  1
  O  O96  1  0.38871533  0.25362486  0.31623765  1
  H  H97  1  0.36122769  0.41351626  0.35420534  1
  O  O98  1  0.18630678  0.21053241  0.34685452  1
  C  C99  1  0.08418053  0.34448575  0.34112659  1
  H  H100  1  0.29092084  0.11066975  0.33800586  1
  C  C101  1  0.11468258  0.37809226  0.36215167  1
  O  O102  1  0.11714122  0.41842404  0.30005395  1
  C  C103  1  0.09726500  0.42571022  0.32599188  1
  H  H104  1  0.16395626  0.45136351  0.25957180  1
  H  H105  1  0.17423767  0.37087438  0.36104729  1
  C  C106  1  0.32373620  0.04746541  0.33334522  1
  C  C107  1  0.35879004  0.06559404  0.31097842  1
  Zn  Zn108  1  0.44365709  0.05050721  0.33605318  1
  H  H109  1  0.03829188  0.41157000  0.27090279  1
  H  H110  1  0.00495890  0.41964907  0.37417977  1
  H  H111  1  0.36737331  0.40584968  0.28306659  1
  C  C112  1  0.18028484  0.17612229  0.36693261  1
  O  O113  1  0.17632600  0.01612516  0.30479377  1
  O  O114  1  0.02189763  0.17872701  0.30266548  1
  O  O115  1  0.27044330  0.04796518  0.25974591  1
  H  H116  1  0.17595428  0.00939498  0.28791970  1
  H  H117  1  0.27271535  0.44833924  0.32696400  1
  H  H118  1  0.06363203  0.18894051  0.36954632  1
  O  O119  1  0.03210249  0.02212977  0.31748668  1
  H  H120  1  0.15094658  0.46293942  0.32773714  1
  H  H121  1  0.28906172  0.13916059  0.36799904  1
  C  C122  1  0.02687858  0.10070924  0.31005845  1
  H  H123  1  0.12554859  0.03083570  0.30910876  1
  C  C124  1  0.34610143  0.48941856  0.35346963  1
  C  C125  1  0.00537724  0.32672822  0.34141575  1
  C  C126  1  0.37940654  0.47491892  0.29289491  1
  H  H127  1  0.05299556  0.48136305  0.32706210  1
  O  O128  1  0.10985779  0.48875132  0.36605817  1
  H  H129  1  0.28004023  0.48384657  0.41932832  1
  H  H130  1  0.00981096  0.47442384  0.41092921  1
  C  C131  1  0.11701138  0.28319765  0.47757858  1
  C  C132  1  0.24356715  0.01825194  0.49476466  1
  H  H133  1  0.27635375  0.05314137  0.40561017  1
  O  O134  1  0.12507495  0.25726854  0.45790477  1
  C  C135  1  0.05855512  0.25399606  0.49012823  1
  O  O136  1  0.10759719  0.02513603  0.43904523  1
  C  C137  1  0.17523871  0.33062140  0.48926673  1
  C  C138  1  0.10800852  0.12872939  0.39867986  1
  C  C139  1  0.38715736  0.14624272  0.42888513  1
  H  H140  1  0.01532056  0.21270715  0.48271219  1
  C  C141  1  0.37494439  0.37159702  0.47116941  1
  C  C142  1  0.20120006  0.48392037  0.39358930  1
  O  O143  1  0.49504461  0.14643721  0.40810804  1
  H  H144  1  0.10013513  0.33186013  0.37621479  1
  Zn  Zn145  1  0.41420063  0.27655087  0.49619567  1
  H  H146  1  0.44291620  0.37046807  0.44200874  1
  Zn  Zn147  1  0.22348802  0.23941200  0.44305938  1
  C  C148  1  0.29692751  0.26710189  0.41874576  1
  H  H149  1  0.05734643  0.12506174  0.40631491  1
  C  C150  1  0.32176509  0.19397015  0.43186460  1
  C  C151  1  0.16745037  0.08468187  0.40862074  1
  C  C152  1  0.40072896  0.25763316  0.39883554  1
  O  O153  1  0.31533508  0.40593264  0.46959970  1
  C  C154  1  0.43079445  0.18182339  0.41173134  1
  H  H155  1  0.40088204  0.08960985  0.44067517  1
  H  H156  1  0.22271910  0.34960329  0.47972949  1
  C  C157  1  0.23962518  0.13395261  0.37761494  1
  C  C158  1  0.49255481  0.28033424  0.46787577  1
  H  H159  1  0.31958019  0.36683513  0.39058537  1
  C  C160  1  0.11509438  0.16810371  0.37825920  1
  C  C161  1  0.33509366  0.30561097  0.40122916  1
  C  C162  1  0.23215356  0.08922167  0.39740862  1
  C  C163  1  0.44122711  0.34700739  0.45846612  1
  C  C164  1  0.16709758  0.03088563  0.42971122  1
  H  H165  1  0.43306128  0.28922676  0.38590220  1
  H  H166  1  0.21052027  0.40708567  0.39022664  1
  O  O167  1  0.18999999  0.05718422  0.48534714  1
  C  C168  1  0.08832933  0.28532934  0.59208164  1
  H  H169  1  0.21741395  0.38358347  0.51747450  1
  H  H170  1  0.31480064  0.17799370  0.61035533  1
  H  H171  1  0.40401963  0.31148762  0.60649067  1
  H  H172  1  0.18631447  0.20711153  0.55603421  1
  C  C173  1  0.21383795  0.13307668  0.52738805  1
  C  C174  1  0.28062017  0.11429902  0.56160309  1
  C  C175  1  0.22172866  0.15530725  0.54850052  1
  O  O176  1  0.28587765  0.13909538  0.58051841  1
  H  H177  1  0.16789470  0.16590581  0.51880315  1
  H  H178  1  0.41965149  0.14116984  0.57007253  1
  O  O179  1  0.44702384  0.28005414  0.56678504  1
  C  C180  1  0.11177527  0.31803652  0.52334021  1
  C  C181  1  0.08561900  0.11600583  0.57972869  1
  C  C182  1  0.07206067  0.38985703  0.59190075  1
  C  C183  1  0.06945778  0.21132095  0.57589704  1
  C  C184  1  0.11590167  0.08024647  0.59881744  1
  C  C185  1  0.25529712  0.06168930  0.51570394  1
  O  O186  1  0.11065773  0.32435002  0.54337341  1
  C  C187  1  0.47329014  0.16496794  0.56506884  1
  H  H188  1  0.05355769  0.08855863  0.52070610  1
  H  H189  1  0.07765464  0.05403323  0.56711113  1
  C  C190  1  0.32486668  0.04524201  0.55006333  1
  C  C191  1  0.17173203  0.34816972  0.51031808  1
  C  C192  1  0.05167997  0.27277713  0.51194981  1
  Zn  Zn193  1  0.02095124  0.40509718  0.56066440  1
  C  C194  1  0.12330758  0.25374227  0.61142024  1
  C  C195  1  0.47284895  0.35063867  0.55514494  1
  H  H196  1  0.47515180  0.15943250  0.54603980  1
  H  H197  1  0.24900098  0.08071414  0.61387361  1
  H  H198  1  0.33533753  0.02410304  0.61216568  1
  C  C199  1  0.31081946  0.02198970  0.52902547  1
  O  O200  1  0.08145290  0.45767913  0.60361723  1
  H  H201  1  0.05282906  0.22835519  0.55887067  1
  C  C202  1  0.45171933  0.44869350  0.55680977  1
  H  H203  1  0.14070500  0.31211295  0.62254787  1
  H  H204  1  0.00261503  0.25436635  0.52022634  1
  C  C205  1  0.13564619  0.15549094  0.61412519  1
  H  H206  1  0.40565085  0.46404054  0.56786360  1
  C  C207  1  0.28229419  0.02306348  0.62172131  1
  C  C208  1  0.00176192  0.05549719  0.52456524  1
  H  H209  1  0.49997481  0.07035517  0.60818224  1
  H  H210  1  0.37007351  0.00897939  0.55804463  1
  C  C211  1  0.39324759  0.27703265  0.62307143  1
  C  C212  1  0.34995883  0.19778593  0.62440532  1
  C  C213  1  0.34715566  0.13506592  0.64251581  1
  H  H214  1  0.47004300  0.26169785  0.67428367  1
  O  O215  1  0.46016410  0.30474851  0.70641184  1
  C  C216  1  0.33826585  0.22798488  0.71261205  1
  H  H217  1  0.12742203  0.34021443  0.73128890  1
  O  O218  1  0.10266418  0.35705564  0.68227620  1
  O  O219  1  0.02721419  0.09638986  0.70009030  1
  H  H220  1  0.01511312  0.28521993  0.68882677  1
  Zn  Zn221  1  0.32722659  0.38533000  0.69040766  1
  C  C222  1  0.16088047  0.34379452  0.68840514  1
  C  C223  1  0.22023785  0.06381687  0.67927769  1
  H  H224  1  0.10582352  0.20735490  0.69294029  1
  O  O225  1  0.00816827  0.34539782  0.74736568  1
  H  H226  1  0.47143945  0.05665503  0.64053316  1
  H  H227  1  0.16197369  0.13908345  0.62982336  1
  H  H228  1  0.39575319  0.11288464  0.67419356  1
  H  H229  1  0.22523315  0.18450287  0.71499729  1
  H  H230  1  0.35140159  0.16875049  0.72461598  1
  O  O231  1  0.16869292  0.22113415  0.74954669  1
  C  C232  1  0.23010942  0.31807985  0.69624562  1
  C  C233  1  0.09409935  0.13018598  0.68819355  1
  C  C234  1  0.26132078  0.23981327  0.70797252  1
  H  H235  1  0.07878346  0.13210522  0.67005929  1
  C  C236  1  0.48553666  0.38792960  0.63956648  1
  C  C237  1  0.43494858  0.30492740  0.64157113  1
  C  C238  1  0.39909196  0.28572353  0.70519545  1
  H  H239  1  0.26336700  0.01319076  0.68306954  1
  C  C240  1  0.16166118  0.33209563  0.74575938  1
  H  H241  1  0.21650603  0.35641489  0.74181344  1
  C  C242  1  0.39355899  0.16216927  0.65948174  1
  H  H243  1  0.22873569  0.12310418  0.66780285  1
  C  C244  1  0.43501532  0.24608166  0.65987093  1
  O  O245  1  0.31224236  0.04989748  0.64236163  1
  C  C246  1  0.15817991  0.06058688  0.69052778  1
  H  H247  1  0.21024647  0.03448363  0.74889607  1
  C  C248  1  0.35698089  0.19687862  0.77102869  1
  C  C249  1  0.17927651  0.38876488  0.78329869  1
  H  H250  1  0.39688687  0.24876782  0.77677848  1
  C  C251  1  0.36604926  0.27569103  0.83964219  1
  H  H252  1  0.20650830  0.31509052  0.78447629  1
  C  C253  1  0.40099689  0.34184560  0.85399717  1
  H  H254  1  0.02777112  0.39519244  0.78008431  1
  H  H255  1  0.22251433  0.44686476  0.77988128  1
  O  O256  1  0.15051402  0.42453031  0.80320430  1
  H  H257  1  0.29315983  0.43695335  0.79788508  1
  C  C258  1  0.27143322  0.46348487  0.81379495  1
  C  C259  1  0.41032942  0.24311588  0.82266409  1
  H  H260  1  0.38751213  0.20213961  0.80905649  1
  C  C261  1  0.19832259  0.45887281  0.81804664  1
  C  C262  1  0.05503520  0.35023770  0.76688554  1
  O  O263  1  0.29694126  0.24593012  0.84081086  1
  C  C264  1  0.25429002  0.28527803  0.85915660  1
  H  H265  1  0.21219077  0.32912459  0.84916132  1
  H  H266  1  0.16313751  0.15071139  0.85100285  1
  O  O267  1  0.46542559  0.08460564  0.79641432  1
  H  H268  1  0.31380862  0.09726496  0.82075497  1
  H  H269  1  0.23155423  0.08274613  0.79283979  1
  C  C270  1  0.36926297  0.09628749  0.77020899  1
  C  C271  1  0.20332825  0.12763317  0.86364520  1
  C  C272  1  0.29348169  0.23472975  0.76394721  1
  Zn  Zn273  1  0.47443327  0.04189757  0.82940637  1
  C  C274  1  0.07540212  0.21229707  0.81925940  1
  H  H275  1  0.02843321  0.23116143  0.82910937  1
  C  C276  1  0.01425159  0.42055672  0.85653644  1
  H  H277  1  0.12215611  0.25657385  0.82291591  1
  C  C278  1  0.07826831  0.13949634  0.80582579  1
  O  O279  1  0.09738186  0.30147847  0.86885673  1
  C  C280  1  0.17557063  0.48695497  0.83892875  1
  H  H281  1  0.25141762  0.08883336  0.85652561  1
  H  H282  1  0.13045841  0.13097270  0.79754115  1
  H  H283  1  0.28286744  0.31180246  0.76556506  1
  H  H284  1  0.03427567  0.09177881  0.80144554  1
  H  H285  1  0.01782219  0.38502546  0.81412634  1
  C  C286  1  0.07219740  0.39332168  0.86983131  1
  O  O287  1  0.38010100  0.02972065  0.85101689  1
  C  C288  1  0.23296314  0.01923951  0.80236660  1
  H  H289  1  0.02738222  0.01268876  0.77650878  1
  H  H290  1  0.11833857  0.49562298  0.84293012  1
  C  C291  1  0.47285437  0.36244109  0.85202040  1
  C  C292  1  0.12987703  0.38966125  0.76352636  1
  H  H293  1  0.05208158  0.27027378  0.77158564  1
  C  C294  1  0.24907846  0.08533884  0.75446501  1
  H  H295  1  0.28746479  0.34541394  0.86692327  1
  H  H296  1  0.36793539  0.37512107  0.86737114  1
  C  C297  1  0.48197864  0.26610187  0.82033768  1
  C  C298  1  0.42578184  0.04471628  0.78253871  1
  C  C299  1  0.23076286  0.18497924  0.75627964  1
  O  O300  1  0.15333637  0.05449070  0.87203543  1
  C  C301  1  0.31304359  0.04427419  0.76088515  1
  C  C302  1  0.28305506  0.02904412  0.81842739  1
  C  C303  1  0.11317557  0.49210707  0.75775769  1
  C  C304  1  0.10052280  0.19624952  0.95736304  1
  H  H305  1  0.12732808  0.19904819  0.89174747  1
  C  C306  1  0.17768533  0.44767812  0.99753636  1
  H  H307  1  0.40722735  0.43078955  0.91169373  1
  H  H308  1  0.24451715  0.35167815  0.95675230  1
  O  O309  1  0.15018142  0.41759805  0.92927604  1
  C  C310  1  0.35530859  0.29351643  0.91859000  1
  C  C311  1  0.18390675  0.14569838  0.98513507  1
  C  C312  1  0.22290614  0.21836057  0.87629297  1
  C  C313  1  0.11678229  0.33772977  0.93275931  1
  H  H314  1  0.08647693  0.03889181  0.93539972  1
  C  C315  1  0.40367794  0.20911423  0.95039848  1
  H  H316  1  0.23999930  0.17186957  0.90956061  1
  C  C317  1  0.09149228  0.47578116  0.88168651  1
  C  C318  1  0.45095950  0.28821133  0.95523849  1
  C  C319  1  0.35707464  0.21522306  0.93360273  1
  H  H320  1  0.13667305  0.46855301  0.89246058  1
  C  C321  1  0.14524252  0.26983350  0.95150682  1
  C  C322  1  0.15540547  0.26296527  0.88446857  1
  H  H323  1  0.31173601  0.15944158  0.93148523  1
  H  H324  1  0.31611548  0.15513255  0.89075159  1
  C  C325  1  0.27180223  0.20553382  0.89557654  1
  O  O326  1  0.06010674  0.31833194  0.92535472  1
  C  C327  1  0.20968215  0.28669136  0.96125696  1
  H  H328  1  0.48029993  0.42999021  0.94324337  1
  H  H329  1  0.04658819  0.18779722  0.95068001  1
  O  O330  1  0.31014208  0.29746785  0.90175616  1
  C  C331  1  0.40257257  0.37043343  0.92327903  1
  C  C332  1  0.44618735  0.36736853  0.94089037  1
  C  C333  1  0.12074376  0.13205170  0.97485436  1
  H  H334  1  0.28290319  0.22781979  0.98451783  1
  H  H335  1  0.08901782  0.07186419  0.97992185  1
  H  H336  1  0.20576395  0.04675495  0.94941333  1
  C  C337  1  0.22798494  0.21878548  0.97729605  1
  O  O338  1  0.21198788  0.46016461  0.97971980  1
  H  H339  1  0.39941854  0.14843882  0.96183706  1
  H  H340  1  0.16673579  0.32286597  0.89557698  1
  C  C341  1  0.30630578  0.72888378  0.04425413  1
  C  C342  1  0.37747037  0.75491754  0.04026557  1
  H  H343  1  0.40324633  0.81270922  0.05020638  1
  O  O344  1  0.27511988  0.76582873  0.06179861  1
  C  C345  1  0.42142706  0.72510183  0.02399910  1
  C  C346  1  0.27958448  0.65980298  0.02925241  1
  C  C347  1  0.19795415  0.74812002  0.06686301  1
  H  H348  1  0.22034129  0.89349728  0.09129520  1
  C  C349  1  0.18056037  0.74672222  0.09047464  1
  H  H350  1  0.17268595  0.81255402  0.05848243  1
  H  H351  1  0.12151289  0.87858732  0.02578140  1
  C  C352  1  0.12822044  0.70629205  0.01338201  1
  C  C353  1  0.10066924  0.72091893  0.09112504  1
  C  C354  1  0.08833329  0.69762189  0.03232501  1
  C  C355  1  0.06292804  0.86744499  0.02975799  1
  C  C356  1  0.18829214  0.84106137  0.10121749  1
  H  H357  1  0.07201244  0.77292023  0.07975325  1
  O  O358  1  0.12303031  0.90976742  0.10812470  1
  O  O359  1  0.05660602  0.77518118  0.04118109  1
  H  H360  1  0.03488037  0.86271973  0.01372985  1
  C  C361  1  0.22388804  0.67115814  0.10283119  1
  H  H362  1  0.07849778  0.74123238  0.10825185  1
  C  C363  1  0.31817204  0.63069897  0.01101561  1
  H  H364  1  0.17956022  0.67829012  0.06043038  1
  C  C365  1  0.08103467  0.59798062  0.03918478  1
  H  H366  1  0.22713846  0.62667016  0.03200298  1
  H  H367  1  0.28295067  0.67205719  0.09885184  1
  O  O368  1  0.07583867  0.62726231  0.08580256  1
  C  C369  1  0.03243829  0.96075567  0.03995036  1
  H  H370  1  0.20318495  0.59769720  0.09916755  1
  H  H371  1  0.28541720  0.92745068  0.06191703  1
  C  C372  1  0.38798846  0.66117269  0.00892918  1
  H  H373  1  0.10882770  0.59246057  0.11468741  1
  C  C374  1  0.13667602  0.98658790  0.12055347  1
  H  H375  1  0.21087530  0.83366180  0.11781239  1
  H  H376  1  0.47593578  0.75407903  0.02201435  1
  H  H377  1  0.05166336  0.58127448  0.05457273  1
  C  C378  1  0.27477528  0.99603366  0.07155102  1
  H  H379  1  0.36935927  0.99190481  0.09248332  1
  H  H380  1  0.13491176  0.77978817  0.00562902  1
  C  C381  1  0.14941203  0.53444564  0.00952069  1
  C  C382  1  0.00283633  0.60578261  0.08676753  1
  C  C383  1  0.10772437  0.51692243  0.02856067  1
  C  C384  1  0.16018211  0.62765291  0.00232334  1
  H  H385  1  0.36503660  0.50551635  0.11106155  1
  H  H386  1  0.08703774  0.96461957  0.07182517  1
  H  H387  1  0.29415474  0.57089437  0.00020031  1
  H  H388  1  0.00327439  0.71439251  0.19752743  1
  C  C389  1  0.00731576  0.82825950  0.17199337  1
  H  H390  1  0.06830803  0.87601637  0.24163845  1
  H  H391  1  0.25143778  0.96259649  0.12573358  1
  C  C392  1  0.18391450  0.63211061  0.13974920  1
  H  H393  1  0.19029202  0.60481148  0.24229033  1
  C  C394  1  0.08114357  0.54764007  0.16787991  1
  C  C395  1  0.03811372  0.76682636  0.18789673  1
  H  H396  1  0.02289727  0.50387978  0.13888882  1
  C  C397  1  0.36795100  0.53811435  0.17098900  1
  H  H398  1  0.25217757  0.92179579  0.15978086  1
  C  C399  1  0.49192693  0.57459629  0.16896237  1
  H  H400  1  0.13255789  0.73697880  0.20388483  1
  C  C401  1  0.35812500  0.93457460  0.17734179  1
  O  O402  1  0.23512321  0.67352625  0.12747663  1
  O  O403  1  0.22480389  0.85768076  0.18873276  1
  H  H404  1  0.23740105  0.66614522  0.16998105  1
  C  C405  1  0.07125915  0.54387041  0.14525716  1
  H  H406  1  0.41121412  0.66624784  0.18583658  1
  H  H407  1  0.24884184  0.99774564  0.18316566  1
  Zn  Zn408  1  0.36185449  0.50510376  0.22502212  1
  C  C409  1  0.02957817  0.50431727  0.18401751  1
  C  C410  1  0.42273200  0.59828826  0.17627807  1
  C  C411  1  0.28656298  0.60811440  0.21337174  1
  C  C412  1  0.24610188  0.52110672  0.21687545  1
  Zn  Zn413  1  0.27013234  0.84751498  0.22328911  1
  H  H414  1  0.14823299  0.97953231  0.16125154  1
  O  O415  1  0.29472239  0.69303945  0.20713614  1
  H  H416  1  0.02371887  0.95225326  0.15066384  1
  H  H417  1  0.39185405  0.88409680  0.16700371  1
  C  C418  1  0.02407151  0.82474967  0.23869996  1
  C  C419  1  0.12012062  0.91500659  0.16887856  1
  C  C420  1  0.04843914  0.90376104  0.16297303  1
  C  C421  1  0.27696663  0.93086512  0.17599462  1
  C  C422  1  0.15703768  0.85107201  0.18235956  1
  H  H423  1  0.15547033  0.57784809  0.19440782  1
  O  O424  1  0.19083443  0.77667695  0.23975089  1
  C  C425  1  0.18925650  0.63259197  0.16251634  1
  C  C426  1  0.02359527  0.72947290  0.24582533  1
  C  C427  1  0.11984169  0.59152263  0.13247208  1
  C  C428  1  0.10856567  0.78376078  0.19203602  1
  C  C429  1  0.14459867  0.58157842  0.17627515  1
  H  H430  1  0.31363467  0.55431671  0.17597622  1
  O  O431  1  0.36764654  0.85658055  0.23755498  1
  O  O432  1  0.18090454  0.85717735  0.26955709  1
  C  C433  1  0.17556516  0.77963194  0.25990535  1
  H  H434  1  0.12908651  0.75457907  0.30296284  1
  C  C435  1  0.13661303  0.68649394  0.29380884  1
  C  C436  1  0.23581717  0.69840677  0.33606554  1
  C  C437  1  0.16131957  0.68653646  0.27191086  1
  H  H438  1  0.42843299  0.79543700  0.29838521  1
  H  H439  1  0.10604465  0.59239390  0.32010985  1
  C  C440  1  0.12426921  0.59506598  0.30245155  1
  C  C441  1  0.16834312  0.60233920  0.25916916  1
  O  O442  1  0.42836619  0.74094586  0.34003420  1
  O  O443  1  0.34032166  0.80898341  0.26962340  1
  O  O444  1  0.20234638  0.77039036  0.33164086  1
  Zn  Zn445  1  0.27279660  0.92822154  0.28192830  1
  H  H446  1  0.45494614  0.87090787  0.36445187  1
  H  H447  1  0.07015970  0.70257517  0.25557434  1
  C  C448  1  0.25419922  0.59802354  0.33311579  1
  Zn  Zn449  1  0.44347340  0.57074358  0.31143649  1
  H  H450  1  0.28490311  0.56230552  0.29618233  1
  C  C451  1  0.34253429  0.54634237  0.29866870  1
  C  C452  1  0.45869789  0.82111313  0.26409335  1
  C  C453  1  0.48922816  0.71713797  0.34223404  1
  C  C454  1  0.47012417  0.80332970  0.28592264  1
  Zn  Zn455  1  0.24335376  0.95315690  0.34904680  1
  C  C456  1  0.28634366  0.50799057  0.33819406  1
  Zn  Zn457  1  0.30894601  0.66498818  0.36356064  1
  C  C458  1  0.38519559  0.82640638  0.25593799  1
  C  C459  1  0.13117515  0.50370678  0.29115543  1
  C  C460  1  0.15584029  0.51456493  0.26945985  1
  C  C461  1  0.33608952  0.93349575  0.37058133  1
  C  C462  1  0.38357725  0.54496452  0.37028481  1
  O  O463  1  0.02110182  0.78600810  0.36162124  1
  C  C464  1  0.35592186  0.98381984  0.35098373  1
  O  O465  1  0.35940012  0.98721407  0.29996296  1
  H  H466  1  0.26682856  0.55254291  0.48548366  1
  C  C467  1  0.24546883  0.52870070  0.40873009  1
  H  H468  1  0.11400201  0.68550551  0.37816845  1
  Zn  Zn469  1  0.09174263  0.99209753  0.47126305  1
  H  H470  1  0.14594564  0.55158287  0.48586505  1
  O  O471  1  0.22039589  0.98125087  0.43600190  1
  H  H472  1  0.36712032  0.56154399  0.48577025  1
  O  O473  1  0.20617513  0.77553462  0.48290546  1
  O  O474  1  0.33325478  0.62219793  0.44056841  1
  C  C475  1  0.44071637  0.87455138  0.46192543  1
  O  O476  1  0.42113653  0.53678769  0.38577910  1
  O  O477  1  0.44640689  0.87184348  0.48181387  1
  C  C478  1  0.28595457  0.67128446  0.43047172  1
  O  O479  1  0.28420701  0.76146599  0.43256515  1
  O  O480  1  0.10444213  0.83620732  0.47304260  1
  C  C481  1  0.48654570  0.81872650  0.42501857  1
  Zn  Zn482  1  0.43880734  0.61855812  0.44106293  1
  O  O483  1  0.38832385  0.91096802  0.45276127  1
  O  O484  1  0.34504869  0.90681829  0.38859487  1
  C  C485  1  0.18603501  0.68317213  0.40220183  1
  H  H486  1  0.18222837  0.76360849  0.40529867  1
  Zn  Zn487  1  0.27427914  0.86634789  0.45805233  1
  C  C488  1  0.49712458  0.82849432  0.44735517  1
  C  C489  1  0.15008740  0.53281771  0.38117250  1
  C  C490  1  0.14919843  0.63477793  0.38606010  1
  H  H491  1  0.43946982  0.84962999  0.41618626  1
  C  C492  1  0.14389208  0.79392027  0.48694728  1
  C  C493  1  0.24136040  0.62853924  0.41307287  1
  H  H494  1  0.01325098  0.78145886  0.37644819  1
  O  O495  1  0.27957067  0.95009751  0.48610775  1
  H  H496  1  0.45714717  0.56327320  0.49931358  1
  C  C497  1  0.15560087  0.75974542  0.52666643  1
  C  C498  1  0.26560066  0.89106266  0.59554562  1
  H  H499  1  0.23042790  0.82832665  0.58886188  1
  C  C500  1  0.31817488  0.84630192  0.55426600  1
  O  O501  1  0.33924384  0.86579017  0.59378553  1
  H  H502  1  0.29624283  0.81032167  0.51937787  1
  C  C503  1  0.36099294  0.84059418  0.57264708  1
  C  C504  1  0.40725380  0.78282555  0.53108188  1
  H  H505  1  0.26389822  0.87780433  0.55552801  1
  C  C506  1  0.33633002  0.81333667  0.53267571  1
  C  C507  1  0.45829678  0.78232412  0.54741108  1
  C  C508  1  0.42912676  0.80426737  0.56825949  1
  C  C509  1  0.13604505  0.54673961  0.52073349  1
  C  C510  1  0.12980658  0.75364904  0.54729508  1
  H  H511  1  0.20940907  0.72644277  0.52375637  1
  H  H512  1  0.16771613  0.72396258  0.55887614  1
  H  H513  1  0.12422158  0.74598589  0.59361105  1
  O  O514  1  0.17046625  0.71039735  0.59199682  1
  H  H515  1  0.45975739  0.79185026  0.58299953  1
  C  C516  1  0.28680197  0.56335313  0.51990060  1
  C  C517  1  0.11143950  0.78418054  0.50912977  1
  C  C518  1  0.05967628  0.78365177  0.55253369  1
  C  C519  1  0.05787624  0.53733214  0.51783894  1
  C  C520  1  0.04227857  0.81858399  0.51333003  1
  C  C521  1  0.17413606  0.54803957  0.54025113  1
  C  C522  1  0.24747897  0.56108478  0.53911640  1
  O  O523  1  0.37013771  0.57950786  0.51982481  1
  H  H524  1  0.13939907  0.53685005  0.55505380  1
  O  O525  1  0.03328487  0.78059134  0.57229275  1
  H  H526  1  0.27501376  0.57744210  0.55443564  1
  H  H527  1  0.24891637  0.95200808  0.58579056  1
  H  H528  1  0.01064327  0.84814018  0.50029388  1
  C  C529  1  0.24722354  0.92645015  0.61840522  1
  C  C530  1  0.24808461  0.55553353  0.50133413  1
  C  C531  1  0.17358859  0.55327620  0.50128591  1
  C  C532  1  0.01707132  0.80937071  0.53412491  1
  H  H533  1  0.49370118  0.96543019  0.57366797  1
  O  O534  1  0.02740879  0.54794776  0.50010176  1
  C  C535  1  0.40124838  0.58540830  0.50091449  1
  H  H536  1  0.26730746  0.58275236  0.60637167  1
  C  C537  1  0.17724549  0.67454211  0.61295307  1
  Zn  Zn538  1  0.44360326  0.73304160  0.50066708  1
  O  O539  1  0.13112557  0.98368519  0.60121032  1
  C  C540  1  0.16976739  0.94231573  0.62090345  1
  O  O541  1  0.02501299  0.51279332  0.53464882  1
  H  H542  1  0.13846465  0.86938556  0.62222325  1
  H  H543  1  0.34015009  0.96608500  0.52092865  1
  C  C544  1  0.23072850  0.60809060  0.62036266  1
  C  C545  1  0.48524514  0.52467710  0.54531063  1
  H  H546  1  0.45993993  0.59966611  0.54696580  1
  H  H547  1  0.06827215  0.50474242  0.74615358  1
  H  H548  1  0.27747565  0.88074573  0.69722296  1
  O  O549  1  0.17593611  0.55131137  0.74620333  1
  H  H550  1  0.25578839  0.77309188  0.62809146  1
  H  H551  1  0.15788604  0.99079669  0.63520521  1
  H  H552  1  0.33382465  0.84131726  0.63279076  1
  C  C553  1  0.32133813  0.82926683  0.69077888  1
  C  C554  1  0.46490345  0.66614830  0.70930459  1
  O  O555  1  0.47642946  0.70286275  0.72750730  1
  H  H556  1  0.00187048  0.93123074  0.73823618  1
  H  H557  1  0.08598950  0.85858973  0.74230884  1
  C  C558  1  0.25308970  0.56376895  0.64114939  1
  O  O559  1  0.00752830  0.79272338  0.72706371  1
  C  C560  1  0.02864372  0.86909646  0.74636890  1
  C  C561  1  0.15415725  0.98141187  0.70753181  1
  C  C562  1  0.35782034  0.73813499  0.65992864  1
  H  H563  1  0.47591644  0.98092330  0.67355053  1
  O  O564  1  0.18957260  0.92085300  0.71591021  1
  O  O565  1  0.29084635  0.50631342  0.64976074  1
  C  C566  1  0.36746750  0.78612331  0.70480650  1
  H  H567  1  0.10109505  0.96816231  0.71712966  1
  H  H568  1  0.30401108  0.60350042  0.73432822  1
  C  C569  1  0.12934095  0.69509375  0.62985505  1
  C  C570  1  0.40946440  0.69375819  0.67267957  1
  O  O571  1  0.26075999  0.85761108  0.65693956  1
  C  C572  1  0.41176963  0.71553367  0.69473219  1
  O  O573  1  0.01406262  0.77670593  0.64291733  1
  Zn  Zn574  1  0.16552978  0.63325135  0.65775939  1
  H  H575  1  0.35261225  0.71727242  0.64253161  1
  C  C576  1  0.31172574  0.80859216  0.66851635  1
  C  C577  1  0.07143987  0.73442219  0.64076086  1
  H  H578  1  0.44845694  0.64224543  0.66448237  1
  C  C579  1  0.27196401  0.84566022  0.63370526  1
  H  H580  1  0.37187533  0.81018455  0.72095575  1
  C  C581  1  0.33848080  0.67824501  0.78512867  1
  O  O582  1  0.38510180  0.73045768  0.81821377  1
  H  H583  1  0.24845644  0.80482831  0.84179260  1
  C  C584  1  0.39877477  0.71748332  0.79853116  1
  O  O585  1  0.36145836  0.87342245  0.86059509  1
  H  H586  1  0.11585027  0.78907408  0.77585688  1
  H  H587  1  0.16992868  0.80265903  0.80897474  1
  C  C588  1  0.19956346  0.86564183  0.81204565  1
  C  C589  1  0.24787529  0.86659709  0.82937764  1
  O  O590  1  0.43381155  0.95246005  0.78053719  1
  C  C591  1  0.35010061  0.94880990  0.84951090  1
  C  C592  1  0.08946774  0.85635836  0.78279841  1
  C  C593  1  0.29255548  0.94719989  0.83178004  1
  Zn  Zn594  1  0.44092206  0.76268103  0.84899921  1
  C  C595  1  0.18805272  0.94036194  0.79662287  1
  O  O596  1  0.13963959  0.93574306  0.78017377  1
  H  H597  1  0.08056868  0.85543760  0.80042159  1
  C  C598  1  0.27013503  0.66002798  0.79388170  1
  H  H599  1  0.26039609  0.67705361  0.81165719  1
  C  C600  1  0.21856049  0.61293490  0.78168213  1
  O  O601  1  0.41851073  0.59207623  0.85244227  1
  O  O602  1  0.46029906  0.73272014  0.79086604  1
  H  H603  1  0.44528094  0.61823687  0.86477472  1
  H  H604  1  0.17104291  0.58104220  0.79033070  1
  H  H605  1  0.31750715  0.96689516  0.75952856  1
  C  C606  1  0.34710830  0.66233005  0.76266944  1
  C  C607  1  0.01673498  0.86582559  0.76996784  1
  O  O608  1  0.01694119  0.69313506  0.78578310  1
  C  C609  1  0.00813166  0.58824680  0.86710126  1
  C  C610  1  0.01175611  0.53385826  0.80169455  1
  C  C611  1  0.34808311  0.56705886  0.86445112  1
  H  H612  1  0.19969171  0.54026668  0.87034071  1
  H  H613  1  0.09115570  0.52936453  0.77279908  1
  C  C614  1  0.29344797  0.52976719  0.84951565  1
  C  C615  1  0.21969148  0.51646002  0.85502183  1
  H  H616  1  0.06981018  0.53713462  0.80515818  1
  H  H617  1  0.39609857  0.67669066  0.75432166  1
  O  O618  1  0.49787876  0.89611922  0.83271681  1
  C  C619  1  0.22276031  0.59319571  0.75955070  1
  H  H620  1  0.37384812  0.50862389  0.82515202  1
  C  C621  1  0.31686645  0.50393847  0.82894303  1
  C  C622  1  0.28906794  0.62268924  0.75102052  1
  O  O623  1  0.48932068  0.74458872  0.87944666  1
  H  H624  1  0.03420552  0.58050413  0.99793864  1
  O  O625  1  0.34391344  0.57730988  0.88317052  1
  O  O626  1  0.32825462  0.83088160  0.96771700  1
  O  O627  1  0.40077000  0.60645158  0.97260733  1
  C  C628  1  0.00398310  0.53702930  0.96488814  1
  O  O629  1  0.28771082  0.68026106  0.91832147  1
  C  C630  1  0.17703433  0.97502693  0.94780237  1
  O  O631  1  0.49608034  0.65976128  0.98984740  1
  Zn  Zn632  1  0.15334679  0.53660564  0.95053852  1
  C  C633  1  0.24186591  0.94365254  0.88872547  1
  C  C634  1  0.17201943  0.97072252  0.88210416  1
  H  H635  1  0.31590166  0.84520792  0.90303188  1
  H  H636  1  0.27153948  0.55341000  0.96792828  1
  C  C637  1  0.13361883  0.81631938  0.89798095  1
  C  C638  1  0.10441749  0.80084442  0.94814164  1
  C  C639  1  0.10726195  0.96928468  0.94184178  1
  C  C640  1  0.21180335  0.88918241  0.95428965  1
  H  H641  1  0.28487920  0.99344313  0.88503802  1
  C  C642  1  0.26116738  0.85668683  0.89796173  1
  Zn  Zn643  1  0.33727124  0.69946765  0.94865475  1
  C  C644  1  0.29101474  0.90181178  0.95969902  1
  H  H645  1  0.19491280  0.63651776  0.98714736  1
  O  O646  1  0.05133544  0.58602447  0.95579219  1
  C  C647  1  0.05963883  0.56970323  0.88309752  1
  H  H648  1  0.20626925  0.73233965  0.95801907  1
  H  H649  1  0.08736867  0.76859591  0.90147176  1
  C  C650  1  0.43292914  0.63788459  0.98937208  1
  O  O651  1  0.43046780  0.93722468  0.91375936  1
  C  C652  1  0.11994903  0.90509948  0.88885228  1
  C  C653  1  0.17514319  0.79946093  0.95529539  1
  O  O654  1  0.24856505  0.60673181  0.96094718  1
  C  C655  1  0.45139998  0.88385729  0.92734415  1
  C  C656  1  0.20526095  0.79264579  0.90311505  1
  C  C657  1  0.06392867  0.88348794  0.94256572  1
  O  O658  1  0.42851678  0.77274008  0.92771906  1
  H  H659  1  0.07536187  0.73229030  0.94862866  1
  O  O660  1  0.31602576  0.98341576  0.95871359  1
  H  H661  1  0.07868448  0.62940978  0.89336133  1
  H  H662  1  0.06431432  0.92415055  0.88566083  1
  C  C663  1  0.22363895  0.69757638  0.91388800  1
  H  H664  1  0.42643633  0.76588173  0.91213778  1
  O  O665  1  0.17561890  0.64322052  0.91973706  1
  C  C666  1  0.88771451  0.12889114  0.03513993  1
  C  C667  1  0.75906830  0.13568094  0.03525859  1
  C  C668  1  0.82632502  0.16843365  0.04289381  1
  H  H669  1  0.83208765  0.23038340  0.05280083  1
  O  O670  1  0.69671852  0.25405945  0.05427238  1
  C  C671  1  0.69145090  0.18298092  0.04202789  1
  H  H672  1  0.89244800  0.40813257  0.07663858  1
  Zn  Zn673  1  0.73422818  0.38713416  0.04030048  1
  O  O674  1  0.63373526  0.16372266  0.03318925  1
  O  O675  1  0.77334202  0.44207390  0.06890919  1
  C  C676  1  0.83815564  0.18165165  0.09854428  1
  H  H677  1  0.79071656  0.13887360  0.09200788  1
  C  C678  1  0.90581616  0.17695897  0.09229830  1
  H  H679  1  0.93901365  0.16145434  0.04098965  1
  O  O680  1  0.65214328  0.43600243  0.01737005  1
  C  C681  1  0.75737225  0.05784205  0.02024460  1
  C  C682  1  0.67015471  0.06325402  0.09980093  1
  H  H683  1  0.92349538  0.12512635  0.07954515  1
  O  O684  1  0.82961745  0.38641440  0.01943937  1
  H  H685  1  0.52516481  0.43808984  0.11576952  1
  C  C686  1  0.89038800  0.05138756  0.01991699  1
  C  C687  1  0.60670475  0.03562708  0.10202341  1
  C  C688  1  0.55735528  0.37123020  0.12148997  1
  C  C689  1  0.90986788  0.48499605  0.07816943  1
  O  O690  1  0.98687878  0.22035857  0.09445950  1
  H  H691  1  0.70426749  0.02906785  0.01558431  1
  C  C692  1  0.82080107  0.02161391  0.01268904  1
  O  O693  1  0.94570078  0.00490658  0.01214709  1
  O  O694  1  0.51892441  0.29896564  0.11810742  1
  Zn  Zn695  1  0.84191997  0.28285972  0.12151909  1
  C  C696  1  0.65900587  0.47521218  0.12497347  1
  H  H697  1  0.51094973  0.02373922  0.02535877  1
  Zn  Zn698  1  0.60109711  0.16617966  0.00016056  1
  C  C699  1  0.62936306  0.38323273  0.12888449  1
  H  H700  1  0.73076421  0.35599553  0.20602730  1
  O  O701  1  0.77172032  0.04650214  0.16794141  1
  H  H702  1  0.56777834  0.22730947  0.22471989  1
  H  H703  1  0.95073778  0.14540790  0.21029915  1
  C  C704  1  0.71895224  0.09542113  0.17423755  1
  C  C705  1  0.64764198  0.13061387  0.23946841  1
  Zn  Zn706  1  0.64034937  0.09972829  0.12963906  1
  C  C707  1  0.79460190  0.48081790  0.13602473  1
  H  H708  1  0.91078589  0.49642718  0.23574094  1
  O  O709  1  0.97040609  0.47782458  0.17572536  1
  O  O710  1  0.94218195  0.11230574  0.16435632  1
  C  C711  1  0.91260745  0.20784121  0.20836468  1
  H  H712  1  0.78672879  0.26113362  0.17292102  1
  O  O713  1  0.98729216  0.01982798  0.22625081  1
  C  C714  1  0.81811902  0.31660133  0.22822388  1
  O  O715  1  0.80652364  0.39436599  0.14305191  1
  C  C716  1  0.87327311  0.24039160  0.22925652  1
  C  C717  1  0.70940073  0.07511764  0.23465831  1
  H  H718  1  0.61319897  0.21054102  0.18791013  1
  C  C719  1  0.82095256  0.28631565  0.18585424  1
  C  C720  1  0.61428808  0.17811702  0.22226978  1
  O  O721  1  0.68034912  0.14383683  0.16154913  1
  O  O722  1  0.93305374  0.25759272  0.15026323  1
  C  C723  1  0.92641035  0.20185671  0.16595168  1
  C  C724  1  0.78357929  0.31987267  0.20673865  1
  Zn  Zn725  1  0.89665689  0.35921348  0.20662130  1
  H  H726  1  0.66036811  0.32594417  0.13724834  1
  H  H727  1  0.88738956  0.20680282  0.24490700  1
  O  O728  1  0.80768199  0.37877585  0.24432114  1
  C  C729  1  0.63499011  0.16689599  0.20097097  1
  C  C730  1  0.69444746  0.10545891  0.19691088  1
  C  C731  1  0.73560426  0.06728069  0.21392049  1
  H  H732  1  0.73453413  0.03321801  0.24813538  1
  H  H733  1  0.78710516  0.02898354  0.21119950  1
  C  C734  1  0.89145890  0.23848630  0.18627721  1
  Zn  Zn735  1  0.87638652  0.00981131  0.17910036  1
  H  H736  1  0.55811904  0.47431173  0.15079063  1
  C  C737  1  0.50434830  0.49034843  0.15721318  1
  H  H738  1  0.73753935  0.49773345  0.22662494  1
  C  C739  1  0.69060525  0.28196439  0.33017453  1
  C  C740  1  0.65684285  0.25457584  0.35010504  1
  H  H741  1  0.70488043  0.22951582  0.31784712  1
  O  O742  1  0.64100889  0.16708997  0.35637646  1
  H  H743  1  0.70313613  0.10764064  0.28011529  1
  C  C744  1  0.65129437  0.06882090  0.27760681  1
  C  C745  1  0.63764613  0.05540430  0.31868526  1
  C  C746  1  0.66280552  0.07009057  0.33985415  1
  H  H747  1  0.72286836  0.06678773  0.34069799  1
  O  O748  1  0.83029089  0.05714906  0.28835138  1
  C  C749  1  0.61371322  0.04169313  0.29864378  1
  H  H750  1  0.80921612  0.38740427  0.27492474  1
  H  H751  1  0.81381023  0.37443569  0.34184008  1
  C  C752  1  0.92313655  0.41907888  0.26822194  1
  C  C753  1  0.70487985  0.37393632  0.32390411  1
  H  H754  1  0.73175087  0.38964764  0.30780535  1
  C  C755  1  0.85599354  0.36269665  0.26535419  1
  H  H756  1  0.85932682  0.28294702  0.26755858  1
  O  O757  1  0.87803455  0.43524029  0.30787888  1
  O  O758  1  0.97092334  0.24575769  0.35770298  1
  C  C759  1  0.85173040  0.43573105  0.34481496  1
  C  C760  1  0.64691152  0.33808040  0.36284422  1
  C  C761  1  0.92685786  0.47099389  0.28974789  1
  C  C762  1  0.88969801  0.47671130  0.32712144  1
  H  H763  1  0.98458082  0.29354929  0.32646512  1
  C  C764  1  0.66195703  0.43410810  0.35690949  1
  C  C765  1  0.68887660  0.45899317  0.33672680  1
  H  H766  1  0.97276202  0.39126781  0.34521023  1
  H  H767  1  0.56131845  0.00276361  0.29567164  1
  H  H768  1  0.64308041  0.02018937  0.35260190  1
  H  H769  1  0.66287926  0.00002334  0.26910689  1
  H  H770  1  0.98414166  0.47611229  0.29405372  1
  H  H771  1  0.99296616  0.29705556  0.27484357  1
  C  C772  1  0.99047050  0.36855755  0.26472836  1
  O  O773  1  0.61876296  0.13631435  0.25865105  1
  C  C774  1  0.85845392  0.47536166  0.36464799  1
  O  O775  1  0.83576559  0.10061540  0.27060548  1
  O  O776  1  0.55448689  0.49799125  0.27128899  1
  C  C777  1  0.51593424  0.21867639  0.48322491  1
  H  H778  1  0.51094805  0.10433233  0.43902068  1
  C  C779  1  0.63772963  0.00104948  0.43721825  1
  C  C780  1  0.95214079  0.21218497  0.39608822  1
  Zn  Zn781  1  0.93451781  0.48666796  0.48446996  1
  O  O782  1  0.62196111  0.03235922  0.46129281  1
  C  C783  1  0.69671252  0.44316334  0.45274873  1
  H  H784  1  0.85895715  0.05768669  0.37698597  1
  H  H785  1  0.66141993  0.48268718  0.46359314  1
  C  C786  1  0.76836705  0.47326367  0.45068779  1
  H  H787  1  0.63038528  0.33297722  0.37992057  1
  C  C788  1  0.52848139  0.06780066  0.42344195  1
  O  O789  1  0.99429951  0.03040363  0.48677050  1
  C  C790  1  0.81944468  0.42507180  0.43746621  1
  O  O791  1  0.93792460  0.31314766  0.46146513  1
  H  H792  1  0.59637529  0.22978741  0.42427071  1
  H  H793  1  0.87664712  0.44752555  0.43591082  1
  O  O794  1  0.70681627  0.20791662  0.42365372  1
  C  C795  1  0.99192473  0.36459550  0.38636119  1
  C  C796  1  0.63458942  0.17110897  0.42891556  1
  C  C797  1  0.63954602  0.06525311  0.39935169  1
  H  H798  1  0.83035372  0.29817788  0.41635891  1
  H  H799  1  0.82174480  0.44527566  0.37770154  1
  O  O800  1  0.88155028  0.02507386  0.41781911  1
  O  O801  1  0.99152479  0.44803003  0.45391358  1
  C  C802  1  0.60679298  0.07110664  0.42102690  1
  H  H803  1  0.62607525  0.32811510  0.44735901  1
  H  H804  1  0.93645807  0.13806813  0.39152886  1
  C  C805  1  0.73056208  0.29644411  0.43213082  1
  C  C806  1  0.94724014  0.24347572  0.41699956  1
  C  C807  1  0.96783318  0.36485184  0.44812601  1
  C  C808  1  0.97210877  0.33354409  0.42455268  1
  H  H809  1  0.92211230  0.19798592  0.42924102  1
  C  C810  1  0.68219455  0.35232271  0.44485385  1
  H  H811  1  0.60066218  0.07833838  0.38561161  1
  H  H812  1  0.63637279  0.17584342  0.44735745  1
  H  H813  1  0.68881711  0.11354406  0.39763567  1
  C  C814  1  0.79673409  0.33925674  0.42751007  1
  C  C815  1  0.97061833  0.27485056  0.37859248  1
  C  C816  1  0.99371005  0.39840300  0.40776915  1
  C  C817  1  0.74312936  0.18886473  0.52778646  1
  H  H818  1  0.74668032  0.11094458  0.52225045  1
  O  O819  1  0.64012643  0.14664560  0.54891739  1
  C  C820  1  0.79489590  0.24779583  0.51930212  1
  C  C821  1  0.69639895  0.30580005  0.55240943  1
  C  C822  1  0.68851496  0.21016025  0.54328446  1
  H  H823  1  0.65867376  0.33194995  0.56533726  1
  C  C824  1  0.59554506  0.18386497  0.56867111  1
  H  H825  1  0.57778650  0.25781527  0.57124392  1
  C  C826  1  0.88688388  0.33208001  0.58640454  1
  Zn  Zn827  1  0.90671763  0.19033788  0.59595717  1
  H  H828  1  0.64188640  0.17685376  0.58016652  1
  H  H829  1  0.60169760  0.38266839  0.51535851  1
  O  O830  1  0.91741400  0.33656208  0.56832881  1
  H  H831  1  0.83064005  0.36022229  0.58510158  1
  O  O832  1  0.90391601  0.04396842  0.58395164  1
  C  C833  1  0.78772931  0.34514921  0.52652602  1
  C  C834  1  0.56281740  0.40640679  0.52757415  1
  C  C835  1  0.74074515  0.37298158  0.54333262  1
  C  C836  1  0.90363117  0.00736239  0.54641186  1
  C  C837  1  0.83686761  0.42015542  0.51731303  1
  C  C838  1  0.97342001  0.04610810  0.54475819  1
  O  O839  1  0.88830014  0.39253424  0.50460884  1
  C  C840  1  0.53851806  0.01676963  0.56726672  1
  C  C841  1  0.87035727  0.00609797  0.56808821  1
  C  C842  1  0.92254296  0.33607252  0.61017760  1
  H  H843  1  0.53223502  0.02170058  0.54875961  1
  H  H844  1  0.54645881  0.26327340  0.53618162  1
  H  H845  1  0.74308186  0.44797003  0.55189269  1
  C  C846  1  0.53440567  0.12206608  0.57597963  1
  O  O847  1  0.69895765  0.43608459  0.62192516  1
  O  O848  1  0.59602674  0.13495131  0.61587364  1
  C  C849  1  0.75915953  0.47905403  0.62162319  1
  H  H850  1  0.59902153  0.06220038  0.50250302  1
  H  H851  1  0.97142546  0.38564808  0.61042969  1
  C  C852  1  0.52962605  0.33727846  0.53971274  1
  O  O853  1  0.50095950  0.42477609  0.62067132  1
  C  C854  1  0.53001951  0.13039244  0.60019970  1
  H  H855  1  0.83285613  0.22670419  0.50673717  1
  C  C856  1  0.50239125  0.16956041  0.50396803  1
  O  O857  1  0.50396017  0.10959587  0.51776013  1
  H  H858  1  0.50609363  0.20227435  0.60561119  1
  H  H859  1  0.99914346  0.07401678  0.55979488  1
  C  C860  1  0.96631608  0.02140464  0.50544910  1
  C  C861  1  0.89857250  0.10699773  0.70213026  1
  C  C862  1  0.96457761  0.14378484  0.69778709  1
  C  C863  1  0.90158535  0.29813107  0.68795255  1
  C  C864  1  0.52693536  0.06004310  0.64712522  1
  C  C865  1  0.52587062  0.01232942  0.66717452  1
  O  O866  1  0.64146865  0.02926592  0.71429718  1
  C  C867  1  0.82985018  0.15250832  0.69948434  1
  H  H868  1  0.89680940  0.03183812  0.70713940  1
  C  C869  1  0.81123188  0.28516829  0.74052239  1
  O  O870  1  0.70882443  0.28064166  0.69154435  1
  Zn  Zn871  1  0.68077792  0.18207866  0.71692108  1
  C  C872  1  0.58682226  0.02171858  0.68010103  1
  C  C873  1  0.64294924  0.10310088  0.65073528  1
  H  H874  1  0.77108469  0.29875552  0.72745954  1
  O  O875  1  0.77161439  0.11108537  0.70364221  1
  Zn  Zn876  1  0.83074809  0.48730911  0.64654576  1
  H  H877  1  0.69872746  0.07348326  0.68038025  1
  C  C878  1  0.96269418  0.24477905  0.69063383  1
  H  H879  1  0.90875554  0.37594764  0.68284773  1
  H  H880  1  0.80776815  0.06367785  0.74286411  1
  O  O881  1  0.52778924  0.41228456  0.65393787  1
  C  C882  1  0.64763662  0.06833261  0.67151590  1
  H  H883  1  0.89852609  0.34849591  0.72218757  1
  C  C884  1  0.58688917  0.10218969  0.63634921  1
  O  O885  1  0.77829674  0.39366429  0.67827798  1
  C  C886  1  0.77066994  0.31160824  0.68681712  1
  C  C887  1  0.83604179  0.25328717  0.69162331  1
  H  H888  1  0.69622525  0.13116089  0.64513466  1
  C  C889  1  0.88261743  0.31429605  0.73763383  1
  O  O890  1  0.90266311  0.32040431  0.62803318  1
  H  H891  1  0.67979441  0.00829528  0.74709360  1
  H  H892  1  0.86650243  0.47994478  0.74819167  1
  Zn  Zn893  1  0.71799915  0.23330093  0.82217138  1
  C  C894  1  0.81370723  0.14369283  0.82536744  1
  H  H895  1  0.86483776  0.22029885  0.85148054  1
  C  C896  1  0.87873286  0.19270953  0.83492649  1
  H  H897  1  0.91984956  0.13533962  0.83759859  1
  O  O898  1  0.63117016  0.34151643  0.81857446  1
  O  O899  1  0.91459531  0.28960545  0.82444914  1
  C  C900  1  0.59032479  0.36128844  0.83434651  1
  H  H901  1  0.83747852  0.20151022  0.79102172  1
  C  C902  1  0.91432623  0.27285238  0.77114995  1
  C  C903  1  0.84704366  0.24081477  0.77631384  1
  O  O904  1  0.70349594  0.18548856  0.78376500  1
  C  C905  1  0.87225102  0.35807759  0.81604735  1
  O  O906  1  0.80803167  0.36115549  0.81867489  1
  C  C907  1  0.71621054  0.21813422  0.76589740  1
  C  C908  1  0.79177765  0.24942037  0.76041522  1
  O  O909  1  0.61532035  0.40922959  0.84949302  1
  C  C910  1  0.90671774  0.44703954  0.80888034  1
  O  O911  1  0.68451697  0.11492947  0.84850072  1
  H  H912  1  0.95337179  0.25507991  0.78390966  1
  O  O913  1  0.57236624  0.08637563  0.84342030  1
  C  C914  1  0.79274934  0.05889628  0.81593054  1
  C  C915  1  0.51678471  0.32755247  0.83502399  1
  H  H916  1  0.73913463  0.04740059  0.80996371  1
  H  H917  1  0.98860947  0.36864240  0.84584175  1
  C  C918  1  0.70028738  0.45850130  0.76645110  1
  H  H919  1  0.69481911  0.38036854  0.76882389  1
  H  H920  1  0.51103347  0.23607640  0.80636312  1
  C  C921  1  0.98131773  0.44931208  0.80930247  1
  C  C922  1  0.63395146  0.05488960  0.84543198  1
  H  H923  1  0.50212713  0.40289677  0.86429295  1
  C  C924  1  0.93997173  0.31607913  0.75137459  1
  O  O925  1  0.94703598  0.00708251  0.85351535  1
  O  O926  1  0.67247722  0.21716103  0.75025613  1
  C  C927  1  0.75918672  0.49284918  0.75778125  1
  C  C928  1  0.79531702  0.00805959  0.75494002  1
  H  H929  1  0.51463553  0.06320592  0.92856523  1
  H  H930  1  0.80133338  0.01482484  0.95956587  1
  C  C931  1  0.82905951  0.39119083  0.99923518  1
  H  H932  1  0.89010367  0.06404371  0.96275002  1
  H  H933  1  0.62920920  0.00135434  0.90818801  1
  H  H934  1  0.97415574  0.32933310  0.90827465  1
  H  H935  1  0.60064110  0.12272041  0.95363069  1
  O  O936  1  0.62045889  0.18179310  0.90978046  1
  C  C937  1  0.62638983  0.24987368  0.91777598  1
  C  C938  1  0.88588744  0.41871330  0.89625302  1
  C  C939  1  0.86799733  0.09328570  0.92398847  1
  C  C940  1  0.58072659  0.04688078  0.95542540  1
  H  H941  1  0.72428346  0.23271045  0.98636582  1
  H  H942  1  0.86124591  0.38015251  0.95657090  1
  H  H943  1  0.82829680  0.10961211  0.91032199  1
  C  C944  1  0.89741728  0.42920813  0.96542577  1
  H  H945  1  0.70903936  0.35059964  0.89976028  1
  O  O946  1  0.67524366  0.24053031  0.98278299  1
  C  C947  1  0.76580445  0.34813770  0.90226320  1
  C  C948  1  0.91229515  0.33555992  0.90578667  1
  O  O949  1  0.90626015  0.16453202  0.92569625  1
  C  C950  1  0.53204311  0.01402796  0.94116164  1
  C  C951  1  0.81186394  0.41857782  0.89487182  1
  H  H952  1  0.92139163  0.47760887  0.89024844  1
  O  O953  1  0.78313181  0.34299456  0.98846920  1
  Zn  Zn954  1  0.66801147  0.39163447  0.98228142  1
  H  H955  1  0.76436348  0.21163491  0.91943296  1
  C  C956  1  0.87356005  0.25731599  0.91454536  1
  H  H957  1  0.97927540  0.03171449  0.94307510  1
  C  C958  1  0.80227388  0.26673786  0.91179530  1
  O  O959  1  0.54776850  0.35960139  0.97178950  1
  C  C960  1  0.50767216  0.28769813  0.97224303  1
  O  O961  1  0.50802874  0.21967059  0.98617152  1
  C  C962  1  0.89156961  0.43970037  0.98817027  1
  C  C963  1  0.95185886  0.47591092  0.95481258  1
  H  H964  1  0.95272955  0.46743288  0.93730593  1
  O  O965  1  0.64332913  0.02265532  0.98740164  1
  C  C966  1  0.87498744  0.65344157  0.08953257  1
  H  H967  1  0.83480346  0.71074822  0.09338108  1
  H  H968  1  0.84756536  0.88036418  0.05957287  1
  C  C969  1  0.84443698  0.89136522  0.07734697  1
  H  H970  1  0.74714422  0.81464339  0.07803095  1
  C  C971  1  0.78140166  0.86098538  0.08758788  1
  C  C972  1  0.90400498  0.93398484  0.08719412  1
  C  C973  1  0.61291957  0.72770222  0.03599583  1
  C  C974  1  0.59582690  0.83027504  0.04498175  1
  C  C975  1  0.77449886  0.88091216  0.10955481  1
  O  O976  1  0.64262539  0.89581920  0.04227407  1
  Zn  Zn977  1  0.67385255  0.62145913  0.11639756  1
  O  O978  1  0.54051769  0.84550669  0.05470377  1
  O  O979  1  0.67614152  0.78098917  0.11370336  1
  C  C980  1  0.56714582  0.65304808  0.04100549  1
  C  C981  1  0.67018877  0.70641598  0.02233669  1
  C  C982  1  0.68394610  0.61138810  0.01485185  1
  O  O983  1  0.73305163  0.58320760  0.08065224  1
  H  H984  1  0.70388788  0.76814106  0.01800971  1
  C  C985  1  0.94851795  0.67137840  0.09175775  1
  C  C986  1  0.85762110  0.55788061  0.08224661  1
  C  C987  1  0.58731676  0.55809471  0.03540108  1
  C  C988  1  0.83088161  0.93006977  0.12075714  1
  H  H989  1  0.91813355  0.96224176  0.04768028  1
  H  H990  1  0.52114162  0.67327708  0.05149821  1
  O  O991  1  0.96382221  0.95849859  0.07691615  1
  H  H992  1  0.95931997  0.74640756  0.09636511  1
  C  C993  1  0.64452637  0.53034082  0.02129190  1
  H  H994  1  0.93812342  0.50968504  0.01660789  1
  C  C995  1  0.78345649  0.52877544  0.07716835  1
  C  C996  1  0.96861470  0.93080165  0.05307252  1
  C  C997  1  0.71586766  0.84127182  0.12297516  1
  H  H998  1  0.96027495  0.84788876  0.05461049  1
  Zn  Zn999  1  0.64997054  0.99564329  0.07072819  1
  C  C1000  1  0.89215149  0.95414352  0.10965355  1
  H  H1001  1  0.72964122  0.59687720  0.00482850  1
  H  H1002  1  0.93788850  0.98942983  0.11733249  1
  O  O1003  1  0.50139043  0.50753554  0.08194522  1
  C  C1004  1  0.98107071  0.51125263  0.08034350  1
  H  H1005  1  0.54556263  0.50701450  0.03967889  1
  H  H1006  1  0.81682757  0.95635771  0.00191794  1
  C  C1007  1  0.96904148  0.65967399  0.24400213  1
  H  H1008  1  0.82154867  0.94213449  0.13814673  1
  O  O1009  1  0.89852740  0.74075661  0.17361845  1
  H  H1010  1  0.62271213  0.85901977  0.24633529  1
  O  O1011  1  0.88275549  0.97077682  0.21262462  1
  C  C1012  1  0.61008966  0.77126374  0.19721341  1
  H  H1013  1  0.81634799  0.51343123  0.17314953  1
  C  C1014  1  0.93179315  0.81340940  0.16784066  1
  O  O1015  1  0.53734053  0.70676904  0.18899127  1
  C  C1016  1  0.75977724  0.63388019  0.24677645  1
  O  O1017  1  0.84486523  0.53967535  0.13876140  1
  Zn  Zn1018  1  0.90961944  0.59337230  0.16308743  1
  H  H1019  1  0.50277642  0.85944464  0.23287900  1
  O  O1020  1  0.71106163  0.86117316  0.14279369  1
  C  C1021  1  0.69592726  0.62014983  0.20783823  1
  H  H1022  1  0.85681282  0.80781754  0.21515605  1
  O  O1023  1  0.81603120  0.53471199  0.18910785  1
  C  C1024  1  0.76252899  0.74170722  0.24141278  1
  H  H1025  1  0.86071081  0.64225848  0.23094505  1
  C  C1026  1  0.90431251  0.78717046  0.22456845  1
  C  C1027  1  0.94463578  0.95639849  0.22235175  1
  C  C1028  1  0.55125665  0.64033479  0.17467886  1
  O  O1029  1  0.90069766  0.88457893  0.15895696  1
  O  O1030  1  0.60786528  0.62939096  0.16510766  1
  H  H1031  1  0.83742953  0.60330324  0.19005307  1
  H  H1032  1  0.69459604  0.57399445  0.19288269  1
  Zn  Zn1033  1  0.65993528  0.68761561  0.23836736  1
  C  C1034  1  0.73463221  0.57827537  0.22683327  1
  C  C1035  1  0.96076111  0.85267197  0.22861788  1
  C  C1036  1  0.90950413  0.69327863  0.23233416  1
  Zn  Zn1037  1  0.67937729  0.77694788  0.17020273  1
  C  C1038  1  0.68615950  0.73045501  0.20534254  1
  C  C1039  1  0.72469428  0.78926205  0.22214612  1
  O  O1040  1  0.59116148  0.85149243  0.20101570  1
  H  H1041  1  0.72626997  0.86899575  0.22091526  1
  C  C1042  1  0.72562782  0.50532695  0.12790037  1
  C  C1043  1  0.51438811  0.83649353  0.24920144  1
  H  H1044  1  0.80951216  0.78337688  0.24838020  1
  C  C1045  1  0.82770502  0.84159415  0.34695008  1
  C  C1046  1  0.60144470  0.80707565  0.27907512  1
  O  O1047  1  0.81336770  0.81454017  0.32697079  1
  H  H1048  1  0.82561525  0.69665695  0.36217882  1
  O  O1049  1  0.67063851  0.79430169  0.28619031  1
  H  H1050  1  0.75674322  0.69261952  0.34003403  1
  C  C1051  1  0.78907957  0.70596224  0.32512287  1
  C  C1052  1  0.78573321  0.67094821  0.28613642  1
  H  H1053  1  0.83784583  0.65770287  0.32835395  1
  C  C1054  1  0.74765262  0.66755996  0.30678617  1
  C  C1055  1  0.68158816  0.73032880  0.30526542  1
  H  H1056  1  0.66421133  0.76335991  0.32082748  1
  H  H1057  1  0.63417570  0.68373405  0.29973391  1
  C  C1058  1  0.72607665  0.55850882  0.30952913  1
  C  C1059  1  0.93829200  0.55199413  0.33278079  1
  H  H1060  1  0.84183455  0.65161043  0.28822536  1
  H  H1061  1  0.78770831  0.74546387  0.27970048  1
  C  C1062  1  0.94583411  0.59096627  0.35278269  1
  O  O1063  1  0.69531152  0.55189500  0.33036564  1
  H  H1064  1  0.68955864  0.53018181  0.29668783  1
  H  H1065  1  0.64061246  0.69614032  0.35048916  1
  C  C1066  1  0.61498802  0.75744118  0.35850311  1
  H  H1067  1  0.90926829  0.54570219  0.28794395  1
  O  O1068  1  0.76633962  0.59719684  0.26584512  1
  C  C1069  1  0.58140989  0.83351534  0.25836657  1
  C  C1070  1  0.54039212  0.79788115  0.29234742  1
  H  H1071  1  0.54420300  0.78153739  0.31014851  1
  C  C1072  1  0.83268883  0.77644443  0.36425511  1
  H  H1073  1  0.96737411  0.58934823  0.31992627  1
  C  C1074  1  0.53985942  0.77615826  0.35569708  1
  C  C1075  1  0.84190834  0.94014183  0.35355260  1
  C  C1076  1  0.93515646  0.78183704  0.29646410  1
  H  H1077  1  0.98227362  0.65298691  0.35637168  1
  C  C1078  1  0.65368973  0.82397836  0.36957751  1
  O  O1079  1  0.97466494  0.56761209  0.25245038  1
  H  H1080  1  0.77654495  0.50927840  0.30883890  1
  C  C1081  1  0.88824048  0.84013097  0.28644930  1
  H  H1082  1  0.88067507  0.83071980  0.26884065  1
  H  H1083  1  0.85479686  0.89353035  0.29692777  1
  H  H1084  1  0.94640648  0.78382905  0.31375360  1
  H  H1085  1  0.85881987  0.53801343  0.25710289  1
  H  H1086  1  0.71349281  0.82410583  0.36862643  1
  H  H1087  1  0.96349553  0.72419598  0.28669848  1
  C  C1088  1  0.91152912  0.51136631  0.25318698  1
  H  H1089  1  0.98136849  0.82814133  0.35857518  1
  C  C1090  1  0.90475474  0.55254994  0.37020499  1
  H  H1091  1  0.83911485  0.99549934  0.34102447  1
  C  C1092  1  0.51264197  0.85982142  0.36478269  1
  C  C1093  1  0.85312863  0.97734168  0.37385470  1
  O  O1094  1  0.51221031  0.64101040  0.33238957  1
  H  H1095  1  0.65235776  0.50187989  0.36712919  1
  C  C1096  1  0.54881977  0.55718247  0.26036056  1
  H  H1097  1  0.59293920  0.53429859  0.43001025  1
  H  H1098  1  0.69538110  0.99916912  0.43422962  1
  H  H1099  1  0.53709291  0.76227624  0.39535248  1
  C  C1100  1  0.52389886  0.54503100  0.45928294  1
  C  C1101  1  0.54282600  0.55534749  0.43995362  1
  C  C1102  1  0.55547706  0.92159090  0.37738718  1
  H  H1103  1  0.53091909  0.98424173  0.38544141  1
  O  O1104  1  0.67305400  0.97332997  0.38968166  1
  H  H1105  1  0.85517590  0.75926082  0.39882651  1
  O  O1106  1  0.85976559  0.57321506  0.46359897  1
  C  C1107  1  0.86167861  0.90722343  0.39014554  1
  H  H1108  1  0.61548663  0.92694570  0.43551551  1
  C  C1109  1  0.63121450  0.99498833  0.49891743  1
  H  H1110  1  0.90572169  0.97697544  0.45082895  1
  H  H1111  1  0.94423905  0.68373371  0.41333429  1
  C  C1112  1  0.64971211  0.97682561  0.47686469  1
  H  H1113  1  0.54955877  0.51359255  0.47397728  1
  C  C1114  1  0.61301659  0.75231004  0.44479788  1
  C  C1115  1  0.60493470  0.73834609  0.42304880  1
  O  O1116  1  0.96241769  0.66391074  0.39911886  1
  C  C1117  1  0.71953941  0.83350292  0.48852775  1
  C  C1118  1  0.90292766  0.84842060  0.46915271  1
  C  C1119  1  0.87343112  0.94207758  0.41297569  1
  H  H1120  1  0.74546038  0.60332102  0.40847413  1
  O  O1121  1  0.65616641  0.68065917  0.40858803  1
  C  C1122  1  0.62876441  0.90937598  0.38021667  1
  C  C1123  1  0.55947197  0.80102045  0.45695465  1
  C  C1124  1  0.69388217  0.89475473  0.47263924  1
  H  H1125  1  0.75089481  0.77067973  0.48521018  1
  H  H1126  1  0.81585949  0.92596758  0.45118057  1
  C  C1127  1  0.90572572  0.58920028  0.39321978  1
  H  H1128  1  0.71438124  0.64095351  0.43512143  1
  O  O1129  1  0.86935767  0.55804939  0.40697961  1
  C  C1130  1  0.79236015  0.55983454  0.46292582  1
  O  O1131  1  0.74950667  0.61435935  0.47277684  1
  O  O1132  1  0.86794542  0.86509949  0.42558288  1
  C  C1133  1  0.87649926  0.90953213  0.45218832  1
  C  C1134  1  0.70356168  0.64085609  0.41808249  1
  H  H1135  1  0.56546409  0.81700177  0.47466533  1
  H  H1136  1  0.66485038  0.73106451  0.45270619  1
  H  H1137  1  0.70571247  0.87672189  0.45554552  1
  C  C1138  1  0.85104543  0.80911090  0.38458399  1
  O  O1139  1  0.92296390  0.79666522  0.48290322  1
  C  C1140  1  0.54195113  0.77529834  0.41344156  1
  H  H1141  1  0.50880358  0.99440989  0.42297032  1
  H  H1142  1  0.86672567  0.95360161  0.49480422  1
  O  O1143  1  0.70491158  0.81563466  0.54618194  1
  C  C1144  1  0.72417417  0.79553191  0.52772024  1
  O  O1145  1  0.76112923  0.72065291  0.52525626  1
  C  C1146  1  0.57744130  0.58054160  0.51648717  1
  C  C1147  1  0.94625347  0.79994001  0.57548484  1
  H  H1148  1  0.91840053  0.74850993  0.56473521  1
  C  C1149  1  0.91928556  0.79978700  0.59802654  1
  C  C1150  1  0.84336523  0.80662065  0.59960123  1
  C  C1151  1  0.61740761  0.70833714  0.60147985  1
  C  C1152  1  0.60364029  0.87814922  0.58666065  1
  Zn  Zn1153  1  0.76326345  0.81800152  0.57388442  1
  O  O1154  1  0.62522540  0.61841045  0.59677774  1
  C  C1155  1  0.61080162  0.77944044  0.58418028  1
  O  O1156  1  0.55960827  0.66656677  0.51742580  1
  H  H1157  1  0.61336679  0.74956868  0.56768078  1
  C  C1158  1  0.65566048  0.93801658  0.51512251  1
  O  O1159  1  0.59487999  0.94768537  0.56827772  1
  Zn  Zn1160  1  0.73716659  0.58920284  0.50687259  1
  C  C1161  1  0.69771052  0.85604050  0.50978753  1
  H  H1162  1  0.96088149  0.83627573  0.53717866  1
  H  H1163  1  0.93646862  0.87476933  0.56865871  1
  C  C1164  1  0.61553838  0.75133867  0.62322922  1
  H  H1165  1  0.91392044  0.61405364  0.60804962  1
  C  C1166  1  0.79309643  0.80759610  0.61571792  1
  H  H1167  1  0.94951080  0.79854798  0.61400381  1
  C  C1168  1  0.81887156  0.53043979  0.61346015  1
  O  O1169  1  0.82516769  0.50949213  0.52042929  1
  C  C1170  1  0.54117172  0.50483980  0.53065684  1
  H  H1171  1  0.73696870  0.80827460  0.61144422  1
  Zn  Zn1172  1  0.59031856  0.51642819  0.62123829  1
  C  C1173  1  0.60552520  0.91671600  0.60737689  1
  O  O1174  1  0.62775415  0.55258224  0.50466494  1
  H  H1175  1  0.63902527  0.95211398  0.53189702  1
  C  C1176  1  0.89001044  0.56243738  0.61927263  1
  H  H1177  1  0.51502409  0.76003457  0.54589888  1
  C  C1178  1  0.61061791  0.85441984  0.62465112  1
  O  O1179  1  0.80786089  0.97704369  0.57048325  1
  H  H1180  1  0.80962379  0.94616585  0.53111453  1
  H  H1181  1  0.60681242  0.99931655  0.60908148  1
  C  C1182  1  0.86462265  0.96879628  0.52898865  1
  C  C1183  1  0.89789926  0.97758481  0.50911853  1
  O  O1184  1  0.94367480  0.50228728  0.67923615  1
  C  C1185  1  0.59279348  0.99000658  0.70354901  1
  H  H1186  1  0.99564618  0.58294744  0.63492723  1
  O  O1187  1  0.66519417  0.72996322  0.72936021  1
  C  C1188  1  0.80704473  0.78719476  0.73500086  1
  C  C1189  1  0.61919267  0.70169163  0.64451869  1
  H  H1190  1  0.82417039  0.60785075  0.69888279  1
  C  C1191  1  0.94523638  0.54334775  0.63794143  1
  O  O1192  1  0.61035997  0.60953333  0.64759819  1
  H  H1193  1  0.61214060  0.88991023  0.64042073  1
  O  O1194  1  0.69492474  0.62042717  0.70472708  1
  C  C1195  1  0.87887981  0.80991047  0.73586145  1
  C  C1196  1  0.91416026  0.69682305  0.70972878  1
  O  O1197  1  0.50545352  0.60681527  0.70025596  1
  H  H1198  1  0.82408685  0.59874975  0.74262037  1
  Zn  Zn1199  1  0.60908141  0.62840752  0.68539759  1
  C  C1200  1  0.84330414  0.66928229  0.70903366  1
  H  H1201  1  0.95220539  0.65198286  0.69983087  1
  C  C1202  1  0.78841474  0.71208439  0.72073838  1
  H  H1203  1  0.76569126  0.82939816  0.74397472  1
  C  C1204  1  0.93072007  0.51514398  0.66044262  1
  H  H1205  1  0.80712632  0.78699508  0.63295614  1
  H  H1206  1  0.89617760  0.86954984  0.74588026  1
  O  O1207  1  0.55241689  0.92724159  0.71125852  1
  C  C1208  1  0.93867302  0.76764267  0.72498345  1
  O  O1209  1  0.63213038  0.74861783  0.66108522  1
  C  C1210  1  0.71063780  0.68548022  0.71807968  1
  Zn  Zn1211  1  0.56718268  0.80763598  0.73135001  1
  C  C1212  1  0.81899424  0.52472508  0.74877171  1
  C  C1213  1  0.62537323  0.77133337  0.84388804  1
  O  O1214  1  0.59021004  0.69827704  0.84098679  1
  O  O1215  1  0.61965889  0.83053020  0.79204459  1
  H  H1216  1  0.86998648  0.66168149  0.78462732  1
  H  H1217  1  0.74221713  0.81748553  0.79889875  1
  C  C1218  1  0.63505034  0.87200323  0.77510849  1
  H  H1219  1  0.93423244  0.79550933  0.78906493  1
  H  H1220  1  0.54545101  0.88478862  0.83756384  1
  C  C1221  1  0.76057558  0.87370328  0.78695849  1
  C  C1222  1  0.60143835  0.87204434  0.84236107  1
  C  C1223  1  0.71005057  0.90988797  0.77236170  1
  C  C1224  1  0.82933538  0.90431759  0.78318971  1
  H  H1225  1  0.87130284  0.87525060  0.79448464  1
  C  C1226  1  0.65088684  0.94888687  0.84569527  1
  Zn  Zn1227  1  0.82611856  0.65668354  0.85457345  1
  C  C1228  1  0.72284748  0.92590367  0.84900589  1
  C  C1229  1  0.70221700  0.74858702  0.84776105  1
  C  C1230  1  0.74926874  0.82938246  0.85110990  1
  O  O1231  1  0.72398534  0.66105877  0.84796268  1
  H  H1232  1  0.80961547  0.82069334  0.85488987  1
  C  C1233  1  0.90255881  0.60326734  0.79206666  1
  Zn  Zn1234  1  0.63691291  0.56126797  0.85794401  1
  O  O1235  1  0.90579207  0.90050534  0.82667329  1
  C  C1236  1  0.97486983  0.77860996  0.77604498  1
  H  H1237  1  0.95151778  0.74304226  0.76188183  1
  H  H1238  1  0.75916376  0.98561648  0.84973091  1
  C  C1239  1  0.86601768  0.52576973  0.80071872  1
  H  H1240  1  0.80760067  0.51805959  0.79891657  1
  C  C1241  1  0.92492582  0.95929828  0.83986619  1
  Zn  Zn1242  1  0.50510098  0.86714252  0.79867335  1
  H  H1243  1  0.96812970  0.95611965  0.79523696  1
  C  C1244  1  0.85099753  0.97070474  0.76695678  1
  O  O1245  1  0.92666123  0.70310918  0.85067803  1
  C  C1246  1  0.98234552  0.95822056  0.77693928  1
  C  C1247  1  0.97522655  0.68993912  0.86512243  1
  C  C1248  1  0.97817932  0.61569581  0.79253293  1
  H  H1249  1  0.65239246  0.50603225  0.76859307  1
  O  O1250  1  0.92061518  0.99998677  0.76411633  1
  O  O1251  1  0.58581842  0.88021767  0.76115281  1
  H  H1252  1  0.93658516  0.52267503  0.84276563  1
  C  C1253  1  0.98135865  0.51278868  0.85417301  1
  H  H1254  1  0.83279374  0.99499457  0.81427559  1
  C  C1255  1  0.72504352  0.97651569  0.75678849  1
  C  C1256  1  0.50155093  0.91785654  0.94391394  1
  H  H1257  1  0.98371945  0.99437402  0.91561246  1
  C  C1258  1  0.93890368  0.50245847  0.99914886  1
  H  H1259  1  0.73679990  0.92549446  0.95527624  1
  H  H1260  1  0.50829570  0.77536589  0.96297018  1
  O  O1261  1  0.99034810  0.74967625  0.87864942  1
  O  O1262  1  0.81015333  0.58278564  0.88459146  1
  C  C1263  1  0.84395436  0.74235261  0.97259626  1
  O  O1264  1  0.56040223  0.61519532  0.88203207  1
  C  C1265  1  0.54461442  0.70202695  0.88622009  1
  C  C1266  1  0.87698424  0.99901576  0.93360798  1
  C  C1267  1  0.99414748  0.54344814  0.98798791  1
  O  O1268  1  0.70956365  0.50197429  0.88226959  1
  H  H1269  1  0.90054703  0.72941210  0.97765264  1
  C  C1270  1  0.67500805  0.60277156  0.96029479  1
  O  O1271  1  0.76508918  0.95296690  0.91951172  1
  C  C1272  1  0.77482192  0.50754771  0.88708376  1
  C  C1273  1  0.64573676  0.92348055  0.90589247  1
  O  O1274  1  0.69789214  0.51503476  0.96382342  1
  O  O1275  1  0.99359021  0.88468107  0.93652472  1
  H  H1276  1  0.80965835  0.58716471  0.97332698  1
  C  C1277  1  0.82479170  0.83762086  0.96856758  1
  H  H1278  1  0.59124910  0.84263727  0.98859461  1
  C  C1279  1  0.52361154  0.85333536  0.96059840  1
  C  C1280  1  0.72928780  0.68524822  0.96217450  1
  C  C1281  1  0.56996369  0.89194514  0.97539523  1
  H  H1282  1  0.68597880  0.64577793  0.89933418  1
  C  C1283  1  0.70635552  0.77955808  0.95698680  1
  H  H1284  1  0.86453201  0.91063174  0.90497980  1
  C  C1285  1  0.71499925  0.89264090  0.91153996  1
  O  O1286  1  0.61671840  0.61967422  0.95211592  1
  C  C1287  1  0.66936469  0.72372057  0.90126506  1
  H  H1288  1  0.65110711  0.78971094  0.95196791  1
  C  C1289  1  0.83844234  0.91976254  0.92163863  1
  C  C1290  1  0.71957745  0.79052287  0.90898711  1
  H  H1291  1  0.84540122  0.84830465  0.92905797  1
  C  C1292  1  0.60335411  0.76134812  0.89587362  1
  C  C1293  1  0.59193946  0.86074018  0.89931860  1
  C  C1294  1  0.60111192  0.98683810  0.97374174  1
  H  H1295  1  0.76653929  0.75273292  0.91450254  1
  H  H1296  1  0.54006613  0.89492514  0.89650106  1
  C  C1297  1  0.75600870  0.85223713  0.95971990  1
  O  O1298  1  0.87416881  0.91113335  0.97081721  1
  C  C1299  1  0.79687051  0.66450172  0.97026534  1
  C  C1300  1  0.95769241  0.97883702  0.93241519  1
  C  C1301  1  0.86086049  0.99805860  0.95750532  1
