# generated using pymatgen
data_ZnH6(C3N2)2
_symmetry_space_group_name_H-M   'P 1'
_cell_length_a   20.42532856
_cell_length_b   20.97268218
_cell_length_c   36.36629168
_cell_angle_alpha   90.00000000
_cell_angle_beta   90.00000000
_cell_angle_gamma   90.00000000
_symmetry_Int_Tables_number   1
_chemical_formula_structural   ZnH6(C3N2)2
_chemical_formula_sum   'Zn80 H480 C480 N320'
_cell_volume   15578.37108359
_cell_formula_units_Z   80
loop_
 _symmetry_equiv_pos_site_id
 _symmetry_equiv_pos_as_xyz
  1  'x, y, z'
loop_
 _atom_site_type_symbol
 _atom_site_label
 _atom_site_symmetry_multiplicity
 _atom_site_fract_x
 _atom_site_fract_y
 _atom_site_fract_z
 _atom_site_occupancy
  N  N0  1  0.09583415  0.16477947  0.08822631  1
  C  C1  1  0.37467836  0.12746847  0.23575504  1
  C  C2  1  0.23935076  0.07107607  0.20566887  1
  H  H3  1  0.04748472  0.41302919  0.07164633  1
  N  N4  1  0.07811918  0.04535296  0.19364955  1
  C  C5  1  0.35884608  0.11992539  0.06238570  1
  C  C6  1  0.09721629  0.09028504  0.16832797  1
  H  H7  1  0.32389296  0.43509872  0.19270419  1
  C  C8  1  0.27275730  0.02838754  0.00168918  1
  N  N9  1  0.33252117  0.08527894  0.08940512  1
  C  C10  1  0.11864153  0.14722557  0.02807877  1
  N  N11  1  0.17369863  0.49183860  0.03646165  1
  N  N12  1  0.40597138  0.37766686  0.20713317  1
  C  C13  1  0.33285097  0.32733677  0.06132460  1
  C  C14  1  0.08348136  0.44594423  0.05811829  1
  C  C15  1  0.29037842  0.08022612  0.17867203  1
  H  H16  1  0.18630257  0.16991396  0.24174045  1
  H  H17  1  0.14943679  0.08977687  0.15784892  1
  C  C18  1  0.46613873  0.36906018  0.19292000  1
  C  C19  1  0.11301546  0.19424818  0.05642377  1
  C  C20  1  0.37670857  0.42439547  0.18729234  1
  C  C21  1  0.48928264  0.26319384  0.11520067  1
  H  H22  1  0.49924390  0.33568770  0.20600038  1
  H  H23  1  0.40913989  0.11648701  0.05172722  1
  C  C24  1  0.30616826  0.36316500  0.00677017  1
  C  C25  1  0.48257996  0.24071059  0.24189609  1
  N  N26  1  0.29281609  0.02973263  0.15651478  1
  H  H27  1  0.08525287  0.06178423  0.09973736  1
  N  N28  1  0.31280517  0.16335993  0.04890015  1
  H  H29  1  0.10517321  0.24592527  0.05161953  1
  H  H30  1  0.42334781  0.48187385  0.13790676  1
  H  H31  1  0.46559291  0.13908226  0.11712684  1
  C  C32  1  0.25867405  0.15280248  0.06808031  1
  H  H33  1  0.21228877  0.17652820  0.06280704  1
  N  N34  1  0.44209941  0.05421984  0.15035030  1
  H  H35  1  0.28066318  0.07863694  0.01169805  1
  Zn  Zn36  1  0.36918150  0.01638786  0.12023454  1
  N  N37  1  0.30069619  0.41368407  0.02929869  1
  C  C38  1  0.00856058  0.28922553  0.19909557  1
  N  N39  1  0.11397896  0.09070764  0.04501585  1
  Zn  Zn40  1  0.04848465  0.21124832  0.13108289  1
  H  H41  1  0.23545419  0.07890246  0.11282242  1
  C  C42  1  0.27038163  0.10169476  0.09444307  1
  H  H43  1  0.31604099  0.42451645  0.08763310  1
  C  C44  1  0.46352695  0.03275569  0.18382907  1
  H  H45  1  0.05711652  0.28161375  0.21146483  1
  C  C46  1  0.10072438  0.10114722  0.08115877  1
  H  H47  1  0.44330625  0.22136342  0.22565715  1
  H  H48  1  0.34430305  0.29360326  0.08399569  1
  H  H49  1  0.32256413  0.12378458  0.17890887  1
  H  H50  1  0.18044016  0.39062773  0.05173199  1
  C  C51  1  0.31925387  0.39554017  0.06284428  1
  C  C52  1  0.42169897  0.44435452  0.15997102  1
  N  N53  1  0.32278828  0.30995703  0.02689548  1
  C  C54  1  0.15132023  0.43552154  0.04944134  1
  N  N55  1  0.04615807  0.12926660  0.15952969  1
  H  H56  1  0.39764413  0.10754838  0.20962677  1
  C  C57  1  0.47042919  0.10868651  0.14131922  1
  N  N58  1  0.47688053  0.41034511  0.16511417  1
  H  H59  1  0.00070533  0.21374226  0.04246979  1
  H  H60  1  0.22196198  0.09921947  0.23007432  1
  H  H61  1  0.45781655  0.30241428  0.05740170  1
  C  C62  1  0.01455832  0.05639994  0.20037234  1
  H  H63  1  0.31385189  0.21921163  0.22325204  1
  H  H64  1  0.44920010  0.27665827  0.13592907  1
  H  H65  1  0.04367868  0.16376771  0.23902511  1
  Zn  Zn66  1  0.32030517  0.22099431  0.00750875  1
  C  C67  1  0.49457410  0.27853876  0.07687729  1
  N  N68  1  0.20742694  0.02059920  0.19375151  1
  H  H69  1  0.40484953  0.48950640  0.05057960  1
  Zn  Zn70  1  0.13295822  0.00704250  0.02227263  1
  C  C71  1  0.33558008  0.18218672  0.24246546  1
  C  C72  1  0.49227881  0.14174145  0.00184945  1
  N  N73  1  0.32186280  0.18150511  0.27795063  1
  H  H74  1  0.33723287  0.37447104  0.29068620  1
  C  C75  1  0.04270370  0.36077653  0.40321978  1
  N  N76  1  0.33884439  0.29445391  0.32401953  1
  N  N77  1  0.22392659  0.19215587  0.34671416  1
  H  H78  1  0.13861365  0.24268765  0.38456979  1
  C  C79  1  0.13040050  0.01625122  0.29753839  1
  C  C80  1  0.48527214  0.27038062  0.27720704  1
  H  H81  1  0.36748073  0.22863326  0.37158184  1
  C  C82  1  0.34450810  0.12599143  0.29326521  1
  Zn  Zn83  1  0.26201394  0.24618085  0.30488407  1
  N  N84  1  0.33050215  0.20946156  0.46524139  1
  Zn  Zn85  1  0.41984388  0.00975820  0.27582899  1
  H  H86  1  0.15879129  0.05905853  0.29024683  1
  C  C87  1  0.03685717  0.00455971  0.44568679  1
  N  N88  1  0.16206894  0.23520500  0.28500724  1
  C  C89  1  0.35552251  0.30859351  0.44878617  1
  C  C90  1  0.10534750  0.25741365  0.30137388  1
  H  H91  1  0.45860120  0.39679722  0.33561968  1
  Zn  Zn92  1  0.10397049  0.47461794  0.43697947  1
  H  H93  1  0.33769664  0.10653946  0.32274043  1
  C  C94  1  0.17778031  0.23201512  0.46185617  1
  H  H95  1  0.22197688  0.12506992  0.42864961  1
  H  H96  1  0.22362799  0.02037569  0.44915561  1
  H  H97  1  0.14674342  0.47005388  0.25035189  1
  C  C98  1  0.36245998  0.34942887  0.31364429  1
  N  N99  1  0.10098615  0.38573357  0.41237054  1
  H  H100  1  0.06661648  0.36124425  0.28536938  1
  N  N101  1  0.40469685  0.27008570  0.43705343  1
  C  C102  1  0.37344776  0.27029638  0.35309058  1
  Zn  Zn103  1  0.28316137  0.13705472  0.48402558  1
  H  H104  1  0.14123383  0.41610942  0.35876873  1
  C  C105  1  0.38912952  0.20963803  0.44684688  1
  C  C106  1  0.17307358  0.45943609  0.35314086  1
  C  C107  1  0.11913225  0.28774104  0.39439901  1
  N  N108  1  0.42154105  0.31297665  0.35996733  1
  H  H109  1  0.27559301  0.44245711  0.38063967  1
  Zn  Zn110  1  0.48198448  0.30044516  0.40795157  1
  C  C111  1  0.17855350  0.14553711  0.34268864  1
  H  H112  1  0.20118163  0.34588889  0.41649075  1
  N  N113  1  0.17651143  0.43820254  0.46992701  1
  C  C114  1  0.42012393  0.35972283  0.33592757  1
  H  H115  1  0.41954159  0.16653678  0.44005042  1
  H  H116  1  0.15735322  0.13144333  0.31630454  1
  C  C117  1  0.21306915  0.13834653  0.40018028  1
  H  H118  1  0.21186336  0.25178246  0.44082886  1
  H  H119  1  0.45020443  0.40871222  0.46665196  1
  C  C120  1  0.14865754  0.34238207  0.40918777  1
  N  N121  1  0.17468442  0.10994051  0.37472548  1
  H  H122  1  0.09678054  0.28702528  0.32564686  1
  N  N123  1  0.38037370  0.09458779  0.26790597  1
  H  H124  1  0.44766203  0.03127118  0.43374993  1
  N  N125  1  0.05348820  0.23472790  0.28320935  1
  H  H126  1  0.07002967  0.09154276  0.47775732  1
  C  C127  1  0.23717027  0.45510509  0.46960666  1
  C  C128  1  0.24148037  0.19227000  0.38212921  1
  C  C129  1  0.23787295  0.47359400  0.36622053  1
  H  H130  1  0.28210518  0.22334037  0.39243866  1
  H  H131  1  0.26402903  0.28360827  0.48021326  1
  Zn  Zn132  1  0.12772798  0.03530665  0.38131855  1
  H  H133  1  0.07476476  0.27689886  0.45539472  1
  H  H134  1  0.35226943  0.36003220  0.44381568  1
  N  N135  1  0.19454785  0.18687606  0.48496656  1
  N  N136  1  0.05388062  0.29804935  0.39156613  1
  C  C137  1  0.10948931  0.24328640  0.46841508  1
  C  C138  1  0.24611904  0.00349779  0.47404063  1
  C  C139  1  0.30857517  0.26904158  0.46809328  1
  C  C140  1  0.48282395  0.42693669  0.44687201  1
  H  H141  1  0.44456722  0.27568946  0.29635880  1
  N  N142  1  0.04495563  0.03101007  0.41218851  1
  C  C143  1  0.46349060  0.06627438  0.45571197  1
  H  H144  1  0.25551739  0.49252587  0.44965798  1
  C  C145  1  0.02082973  0.37957219  0.29987376  1
  C  C146  1  0.43377797  0.08009537  0.49049715  1
  N  N147  1  0.00759973  0.43752015  0.31272250  1
  N  N148  1  0.00838619  0.48425681  0.44851412  1
  C  C149  1  0.26862044  0.41721912  0.49850312  1
  N  N150  1  0.27838156  0.04389222  0.49572271  1
  N  N151  1  0.08934170  0.20323327  0.49567289  1
  C  C152  1  0.16671309  0.38975085  0.49482287  1
  C  C153  1  0.14568114  0.19723331  0.25801855  1
  C  C154  1  0.07600155  0.19513893  0.25705289  1
  N  N155  1  0.38034744  0.19989981  0.57482132  1
  C  C156  1  0.31834329  0.25983459  0.61290935  1
  H  H157  1  0.11802031  0.42833941  0.56308435  1
  H  H158  1  0.30815512  0.01476552  0.65217289  1
  N  N159  1  0.18748648  0.38952664  0.60030903  1
  Zn  Zn160  1  0.18918336  0.49849093  0.69629132  1
  N  N161  1  0.14268858  0.01060494  0.72318963  1
  H  H162  1  0.38971484  0.06232655  0.50483694  1
  N  N163  1  0.13835039  0.26350394  0.70520248  1
  C  C164  1  0.27993298  0.48557280  0.56882235  1
  C  C165  1  0.12820896  0.47056457  0.62175552  1
  C  C166  1  0.48341884  0.28594921  0.65163190  1
  H  H167  1  0.02486851  0.27624850  0.59404332  1
  H  H168  1  0.05593880  0.19628434  0.71322387  1
  C  C169  1  0.48990443  0.01734841  0.57231772  1
  C  C170  1  0.36676776  0.20998563  0.60980915  1
  C  C171  1  0.33268286  0.45057386  0.58729977  1
  C  C172  1  0.39949979  0.05397926  0.59937987  1
  H  H173  1  0.12070346  0.36917019  0.50328669  1
  C  C174  1  0.46409494  0.32988014  0.62318078  1
  Zn  Zn175  1  0.23239905  0.33160252  0.56312351  1
  H  H176  1  0.29633616  0.28142863  0.63847234  1
  C  C177  1  0.07639935  0.24488672  0.70274658  1
  H  H178  1  0.44322027  0.48894350  0.69956959  1
  N  N179  1  0.30059673  0.27224226  0.57878681  1
  H  H180  1  0.14116991  0.13237000  0.52882566  1
  H  H181  1  0.33268011  0.45409235  0.66101552  1
  H  H182  1  0.25120050  0.38171284  0.64952877  1
  C  C183  1  0.33603071  0.23457470  0.55527056  1
  H  H184  1  0.17512717  0.07540491  0.68237182  1
  H  H185  1  0.44373703  0.32050244  0.59656576  1
  N  N186  1  0.28245141  0.46685579  0.71356678  1
  H  H187  1  0.31644985  0.03189575  0.55380701  1
  C  C188  1  0.06519789  0.07199622  0.69782699  1
  H  H189  1  0.01352392  0.41221686  0.61567661  1
  H  H190  1  0.33356809  0.23629223  0.52441767  1
  C  C191  1  0.05782088  0.06954313  0.50446108  1
  C  C192  1  0.13398428  0.05746518  0.69925761  1
  C  C193  1  0.29064404  0.09818196  0.69383210  1
  C  C194  1  0.00438115  0.06756676  0.55542027  1
  H  H195  1  0.32718485  0.40385111  0.60071694  1
  H  H196  1  0.39833586  0.18890463  0.63086463  1
  C  C197  1  0.39466287  0.47731184  0.71039523  1
  H  H198  1  0.03844275  0.11160056  0.68332181  1
  N  N199  1  0.03724012  0.03031293  0.72159449  1
  N  N200  1  0.04234585  0.01284352  0.55274863  1
  N  N201  1  0.22221450  0.38025251  0.51401820  1
  H  H202  1  0.37796283  0.18551924  0.73328147  1
  H  H203  1  0.20833906  0.19258005  0.63870040  1
  C  C204  1  0.08405741  0.33750514  0.67623547  1
  C  C205  1  0.14197487  0.17084584  0.50677658  1
  N  N206  1  0.04164056  0.29124653  0.68480035  1
  C  C207  1  0.28985034  0.01236879  0.52878986  1
  H  H208  1  0.31652062  0.42199576  0.51101675  1
  Zn  Zn209  1  0.46270636  0.14837484  0.55672301  1
  N  N210  1  0.01363518  0.10347450  0.52516494  1
  H  H211  1  0.19752890  0.34126981  0.68495229  1
  N  N212  1  0.47762004  0.38572272  0.63828460  1
  N  N213  1  0.17130771  0.45194297  0.64831490  1
  Zn  Zn214  1  0.21568511  0.21087526  0.72760908  1
  C  C215  1  0.23868011  0.15346365  0.65187291  1
  C  C216  1  0.29311223  0.06470855  0.66021801  1
  C  C217  1  0.20841945  0.40409749  0.63478777  1
  N  N218  1  0.45064593  0.07060204  0.57863728  1
  C  C219  1  0.13787108  0.42797268  0.59162972  1
  N  N220  1  0.25878516  0.09800284  0.63478504  1
  H  H221  1  0.30181471  0.08495856  0.72421353  1
  N  N222  1  0.25500905  0.14938102  0.68776322  1
  H  H223  1  0.06772478  0.38068453  0.65888172  1
  N  N224  1  0.47568915  0.12066556  0.50672699  1
  C  C225  1  0.33864071  0.45816987  0.69212272  1
  C  C226  1  0.14712787  0.32011553  0.68917069  1
  H  H227  1  0.35472697  0.08615421  0.60571004  1
  C  C228  1  0.36086619  0.23542060  0.73623986  1
  H  H229  1  0.46717589  0.23585139  0.65223746  1
  Zn  Zn230  1  0.46826641  0.46474404  0.60977697  1
  N  N231  1  0.29808172  0.25660400  0.73684660  1
  N  N232  1  0.37545335  0.49091857  0.74570383  1
  H  H233  1  0.04053262  0.47180193  0.70264978  1
  C  C234  1  0.05506079  0.49503365  0.72893506  1
  C  C235  1  0.31195114  0.48018496  0.74786348  1
  N  N236  1  0.49807075  0.31784668  0.68284785  1
  H  H237  1  0.22696875  0.47671933  0.56581615  1
  C  C238  1  0.07668358  0.01108320  0.52215378  1
  N  N239  1  0.38364815  0.48955315  0.58733440  1
  C  C240  1  0.36872842  0.33881946  0.74177713  1
  H  H241  1  0.38935983  0.38701341  0.74104250  1
  C  C242  1  0.30122235  0.32058540  0.74148176  1
  H  H243  1  0.25687586  0.35284016  0.74688880  1
  N  N244  1  0.40487915  0.28398872  0.74006001  1
  H  H245  1  0.29006290  0.36266025  0.97820002  1
  H  H246  1  0.03351667  0.36342359  0.76116926  1
  C  C247  1  0.09867182  0.39033386  0.80990177  1
  C  C248  1  0.37764741  0.02890196  0.80234893  1
  H  H249  1  0.04000441  0.11765636  0.76849345  1
  H  H250  1  0.12695963  0.43162983  0.80090066  1
  H  H251  1  0.38517090  0.41269553  0.82071914  1
  N  N252  1  0.45819271  0.37668910  0.91886520  1
  H  H253  1  0.05095584  0.06593889  0.94741726  1
  H  H254  1  0.28163822  0.49689288  0.77030883  1
  C  C255  1  0.02119434  0.04633034  0.81535427  1
  N  N256  1  0.21932887  0.44712825  0.91054495  1
  N  N257  1  0.10758368  0.34190996  0.92161901  1
  H  H258  1  0.02264593  0.40610633  0.92772412  1
  C  C259  1  0.12900112  0.18505733  0.83083743  1
  H  H260  1  0.05355026  0.00454796  0.81258590  1
  H  H261  1  0.05255511  0.27990133  0.86659801  1
  H  H262  1  0.16523493  0.25510568  0.93029180  1
  H  H263  1  0.10143386  0.24717286  0.78115677  1
  N  N264  1  0.44867448  0.12449295  0.86299204  1
  C  C265  1  0.04732183  0.35667439  0.79073563  1
  N  N266  1  0.24778736  0.15326402  0.90791270  1
  C  C267  1  0.13364395  0.21269904  0.79416179  1
  H  H268  1  0.06290587  0.23235339  0.98103576  1
  H  H269  1  0.22666822  0.30195919  0.81149227  1
  C  C270  1  0.43869834  0.42301125  0.82289994  1
  N  N271  1  0.47757188  0.45719981  0.95514087  1
  C  C272  1  0.43395661  0.41950369  0.97168708  1
  H  H273  1  0.27239898  0.09936164  0.95739547  1
  N  N274  1  0.36181319  0.32721305  0.85932906  1
  N  N275  1  0.18554488  0.18768473  0.77820021  1
  C  C276  1  0.12446493  0.28752493  0.93694566  1
  N  N277  1  0.41292393  0.00250650  0.77664098  1
  C  C278  1  0.06120622  0.31596027  0.84524049  1
  H  H279  1  0.45685694  0.15652721  0.78082358  1
  C  C280  1  0.42373949  0.36390066  0.94916267  1
  H  H281  1  0.17526036  0.41697817  0.96302526  1
  C  C282  1  0.31752544  0.36145689  0.87837103  1
  C  C283  1  0.20862751  0.44639323  0.94820785  1
  Zn  Zn284  1  0.40884448  0.02757627  0.96994209  1
  H  H285  1  0.09084988  0.19453673  0.85049918  1
  N  N286  1  0.47125896  0.22698398  0.87175063  1
  C  C287  1  0.42195330  0.18408995  0.86831675  1
  H  H288  1  0.25720842  0.11644184  0.79734137  1
  H  H289  1  0.38877783  0.04552175  0.88001483  1
  H  H290  1  0.36353197  0.28352608  0.80554988  1
  Zn  Zn291  1  0.45909650  0.31597776  0.87683882  1
  H  H292  1  0.40103733  0.31613212  0.95333901  1
  C  C293  1  0.26540227  0.32013403  0.82953560  1
  H  H294  1  0.41207966  0.15928912  0.92682691  1
  H  H295  1  0.28332960  0.29734107  0.93568605  1
  C  C296  1  0.25243980  0.21425395  0.89769280  1
  C  C297  1  0.33393591  0.30511627  0.82851383  1
  H  H298  1  0.36892196  0.19665020  0.87246867  1
  N  N299  1  0.25885599  0.34990943  0.86095085  1
  H  H300  1  0.32658617  0.38933014  0.90491762  1
  N  N301  1  0.02879331  0.30944464  0.81192430  1
  N  N302  1  0.10479459  0.36425073  0.84309483  1
  H  H303  1  0.39752094  0.05238255  0.82600311  1
  C  C304  1  0.48035447  0.22084256  0.96348867  1
  C  C305  1  0.27583612  0.24723273  0.93026182  1
  Zn  Zn306  1  0.17148295  0.37975104  0.88319577  1
  Zn  Zn307  1  0.20236819  0.09392783  0.87731038  1
  N  N308  1  0.46981219  0.47389255  0.80779596  1
  C  C309  1  0.27263670  0.14616011  0.94270452  1
  H  H310  1  0.23697869  0.23572400  0.87160624  1
  H  H311  1  0.28536698  0.49654717  0.87448449  1
  C  C312  1  0.44291850  0.16530236  0.95105134  1
  N  N313  1  0.28531766  0.20475962  0.95674746  1
  N  N314  1  0.17704948  0.14377599  0.83412521  1
  C  C315  1  0.21261952  0.14407597  0.80185203  1
  N  N316  1  0.45477123  0.11845011  0.97473567  1
  H  H317  1  0.48911534  0.26516481  0.94903867  1
  N  N318  1  0.02796965  0.31799199  0.95961819  1
  C  C319  1  0.04872482  0.36080476  0.93396886  1
  C  C320  1  0.07228904  0.27377047  0.96343089  1
  C  C321  1  0.04876712  0.01197539  0.95032330  1
  N  N322  1  0.32225217  0.00016132  0.98256416  1
  C  C323  1  0.31035738  0.01974315  0.79024036  1
  N  N324  1  0.25200407  0.48916387  0.96372424  1
  C  C325  1  0.48999240  0.43337688  0.92160875  1
  H  H326  1  0.26147607  0.03205951  0.80366700  1
  C  C327  1  0.01623116  0.10494266  0.79467834  1
  N  N328  1  0.48472234  0.38608449  0.83894655  1
  C  C329  1  0.26419157  0.48930395  0.90275948  1
  N  N330  1  0.20080728  0.00004151  0.88179072  1
  H  H331  1  0.13166329  0.15095342  0.99908689  1
  H  H332  1  0.40789282  0.43544012  0.99732012  1
  C  C333  1  0.49755505  0.14373168  0.75989581  1
  N  N334  1  0.30961876  0.75522407  0.12542328  1
  H  H335  1  0.19133837  0.97399411  0.10017417  1
  Zn  Zn336  1  0.13403232  0.97931166  0.21750363  1
  C  C337  1  0.05509163  0.62028326  0.13028167  1
  H  H338  1  0.22419163  0.69812094  0.12852903  1
  N  N339  1  0.06992203  0.50681174  0.05510932  1
  Zn  Zn340  1  0.37455087  0.69227119  0.12783654  1
  H  H341  1  0.32189102  0.98032109  0.21599919  1
  H  H342  1  0.00597163  0.64531115  0.00345154  1
  H  H343  1  0.13346560  0.74498287  0.10303007  1
  H  H344  1  0.27452392  0.64144441  0.06519694  1
  N  N345  1  0.46539239  0.73313061  0.12778814  1
  N  N346  1  0.11816264  0.62083889  0.22129428  1
  C  C347  1  0.12277645  0.84034372  0.19242234  1
  C  C348  1  0.14456676  0.94813646  0.09521502  1
  H  H349  1  0.22613516  0.94853816  0.15032503  1
  H  H350  1  0.45267581  0.79928490  0.17181571  1
  N  N351  1  0.37251431  0.62691934  0.08885510  1
  C  C352  1  0.31976312  0.61384975  0.06704980  1
  C  C353  1  0.10576378  0.70051323  0.10426086  1
  N  N354  1  0.15694708  0.88716497  0.21017555  1
  C  C355  1  0.41561912  0.55566708  0.20708572  1
  H  H356  1  0.46011920  0.98480323  0.04981601  1
  H  H357  1  0.49405493  0.92809227  0.12533216  1
  C  C358  1  0.24370330  0.74728969  0.12741058  1
  N  N359  1  0.40217757  0.93750788  0.09631445  1
  H  H360  1  0.46218084  0.57832978  0.10078976  1
  N  N361  1  0.21982315  0.99057241  0.00083127  1
  H  H362  1  0.32772644  0.92713878  0.05252246  1
  N  N363  1  0.04773394  0.89513285  0.10354925  1
  H  H364  1  0.44481093  0.98544728  0.19476538  1
  C  C365  1  0.45659231  0.90969935  0.10484840  1
  N  N366  1  0.03007328  0.73337136  0.21208060  1
  H  H367  1  0.36843535  0.84133618  0.11415736  1
  N  N368  1  0.04267042  0.61530228  0.09423566  1
  N  N369  1  0.39461558  0.64111377  0.17375535  1
  N  N370  1  0.16773311  0.75920063  0.02203012  1
  N  N371  1  0.15224548  0.78214587  0.19874424  1
  H  H372  1  0.13425921  0.58631329  0.03136003  1
  C  C373  1  0.07325107  0.66270126  0.07650120  1
  C  C374  1  0.05522062  0.91334498  0.06748976  1
  H  H375  1  0.17831740  0.55851875  0.18952482  1
  C  C376  1  0.37307729  0.58288526  0.17937570  1
  N  N377  1  0.09232683  0.67431130  0.13634961  1
  C  C378  1  0.44028520  0.65706778  0.19988926  1
  N  N379  1  0.40385300  0.85257904  0.06175630  1
  H  H380  1  0.07455786  0.84283929  0.17799424  1
  H  H381  1  0.10770144  0.91823430  0.15206305  1
  H  H382  1  0.07639608  0.66094108  0.04457621  1
  C  C383  1  0.32197608  0.81814240  0.11946007  1
  C  C384  1  0.36367134  0.88079322  0.19682085  1
  N  N385  1  0.11139861  0.94626030  0.06332632  1
  C  C386  1  0.10284020  0.91538184  0.12041991  1
  C  C387  1  0.37217976  0.90980857  0.06677560  1
  H  H388  1  0.42002284  0.50800277  0.21966310  1
  N  N389  1  0.32701023  0.55532715  0.05086876  1
  H  H390  1  0.40118830  0.63804831  0.02473453  1
  N  N391  1  0.45616943  0.60206692  0.21704863  1
  H  H392  1  0.01335119  0.90858621  0.04801226  1
  C  C393  1  0.20416996  0.79115231  0.22072753  1
  C  C394  1  0.41700454  0.58151496  0.08466338  1
  C  C395  1  0.21559628  0.80818209  0.12339490  1
  H  H396  1  0.16613856  0.82874240  0.12647524  1
  N  N397  1  0.26352863  0.85154802  0.11839005  1
  C  C398  1  0.45838510  0.85321846  0.08170021  1
  H  H399  1  0.00732262  0.74425765  0.10615743  1
  H  H400  1  0.03531686  0.58945367  0.15343340  1
  C  C401  1  0.20618489  0.85896683  0.22709073  1
  N  N402  1  0.41884057  0.85260044  0.20822012  1
  Zn  Zn403  1  0.11553528  0.70147027  0.18875263  1
  Zn  Zn404  1  0.26254056  0.50203964  0.01904640  1
  Zn  Zn405  1  0.37161254  0.78141912  0.03069466  1
  C  C406  1  0.35776125  0.93864586  0.21715504  1
  C  C407  1  0.38556207  0.53521787  0.05994611  1
  H  H408  1  0.23333463  0.82392537  0.05554456  1
  H  H409  1  0.33331076  0.85191611  0.17708907  1
  H  H410  1  0.46692041  0.70194225  0.20266729  1
  H  H411  1  0.33554650  0.56332409  0.16022847  1
  H  H412  1  0.23440754  0.88565145  0.24785140  1
  C  C413  1  0.15003939  0.56629239  0.21539781  1
  N  N414  1  0.27678473  0.75420036  0.02300201  1
  H  H415  1  0.23456396  0.75289725  0.23241231  1
  C  C416  1  0.49260604  0.97088265  0.02542424  1
  C  C417  1  0.12636100  0.53494347  0.03984660  1
  C  C418  1  0.22548037  0.78462914  0.03709439  1
  C  C419  1  0.13223284  0.52182023  0.24373093  1
  N  N420  1  0.40778051  0.94024463  0.24122632  1
  C  C421  1  0.23921057  0.99290701  0.16459162  1
  C  C422  1  0.44341117  0.88640876  0.23656014  1
  H  H423  1  0.49329575  0.80993713  0.07928507  1
  C  C424  1  0.48620744  0.78227725  0.14889655  1
  C  C425  1  0.03100015  0.76353660  0.24354893  1
  C  C426  1  0.18640723  0.70880864  0.00236541  1
  C  C427  1  0.42640632  0.65982484  0.00195048  1
  C  C428  1  0.30985410  0.72412245  0.39320141  1
  C  C429  1  0.07735055  0.92871018  0.28711479  1
  C  C430  1  0.31222257  0.70895628  0.33410223  1
  H  H431  1  0.05417770  0.88126460  0.43017230  1
  C  C432  1  0.08128696  0.93854903  0.32581293  1
  N  N433  1  0.10953776  0.97676564  0.27055834  1
  C  C434  1  0.20057437  0.55505287  0.33523466  1
  N  N435  1  0.37321878  0.86655493  0.43956773  1
  H  H436  1  0.05900773  0.88597138  0.27298195  1
  Zn  Zn437  1  0.06038660  0.74787420  0.46361087  1
  H  H438  1  0.31665277  0.81719910  0.32255846  1
  Zn  Zn439  1  0.33258160  0.58145802  0.37080305  1
  H  H440  1  0.30911221  0.72089597  0.42430177  1
  H  H441  1  0.22064197  0.89477946  0.48487103  1
  Zn  Zn442  1  0.30208620  0.86390549  0.40327095  1
  C  C443  1  0.42366080  0.82184911  0.44287152  1
  H  H444  1  0.36192962  0.96275126  0.45268467  1
  N  N445  1  0.48963025  0.58172001  0.30129335  1
  N  N446  1  0.30705357  0.59072958  0.48433446  1
  H  H447  1  0.06109090  0.91019684  0.35004375  1
  H  H448  1  0.24894055  0.63579533  0.43956445  1
  H  H449  1  0.47127349  0.50943483  0.38217555  1
  C  C450  1  0.28967392  0.97086543  0.30920762  1
  N  N451  1  0.09814180  0.67150517  0.44561397  1
  C  C452  1  0.08419421  0.61403848  0.25371460  1
  H  H453  1  0.19547907  0.60240474  0.32227412  1
  N  N454  1  0.41348877  0.56764115  0.34353688  1
  H  H455  1  0.41591540  0.91878765  0.35335053  1
  N  N456  1  0.31434938  0.68030617  0.36609327  1
  H  H457  1  0.41274508  0.50931768  0.43186330  1
  C  C458  1  0.37413299  0.53812279  0.44522337  1
  H  H459  1  0.07759577  0.97945730  0.45943589  1
  C  C460  1  0.18994866  0.80512322  0.44557887  1
  H  H461  1  0.05187935  0.64712043  0.26811157  1
  H  H462  1  0.21810245  0.76382436  0.45741339  1
  C  C463  1  0.16446953  0.89546063  0.41703863  1
  H  H464  1  0.49127549  0.75194376  0.38930431  1
  C  C465  1  0.36670129  0.93783396  0.34363431  1
  H  H466  1  0.16279107  0.71232114  0.40517354  1
  N  N467  1  0.21310174  0.85498175  0.42364050  1
  H  H468  1  0.05998208  0.60504236  0.37755619  1
  N  N469  1  0.12527084  0.80951686  0.44738107  1
  N  N470  1  0.30952188  0.78283924  0.37610795  1
  C  C471  1  0.23986942  0.94330708  0.49370769  1
  C  C472  1  0.42808007  0.59710400  0.31070156  1
  C  C473  1  0.31251552  0.77716636  0.34036436  1
  N  N474  1  0.35456706  0.97150888  0.31196825  1
  C  C475  1  0.14242206  0.66857872  0.41872506  1
  Zn  Zn476  1  0.05850716  0.51896842  0.31006361  1
  H  H477  1  0.17215476  0.93569345  0.39745164  1
  N  N478  1  0.30933269  0.91636237  0.35867008  1
  C  C479  1  0.10713209  0.86554473  0.43215633  1
  C  C480  1  0.46144738  0.90889914  0.46687936  1
  H  H481  1  0.07482808  0.77981552  0.25698289  1
  C  C482  1  0.08188489  0.60999089  0.45499919  1
  H  H483  1  0.31501013  0.68361589  0.30694001  1
  C  C484  1  0.39502444  0.91962839  0.45558648  1
  N  N485  1  0.32967130  0.56989290  0.42559838  1
  N  N486  1  0.11544560  0.56730394  0.43346580  1
  C  C487  1  0.15655155  0.60170525  0.41285432  1
  H  H488  1  0.39583229  0.62485559  0.29166742  1
  H  H489  1  0.19604716  0.57878819  0.39696331  1
  H  H490  1  0.20565913  0.92371880  0.34441728  1
  C  C491  1  0.28959373  0.60269192  0.44772588  1
  N  N492  1  0.25329982  0.53236885  0.35505567  1
  N  N493  1  0.09211673  0.55297603  0.26635892  1
  H  H494  1  0.04778109  0.59446129  0.47780186  1
  H  H495  1  0.42056771  0.77301062  0.42973897  1
  C  C496  1  0.25896706  0.93511369  0.33927878  1
  C  C497  1  0.35774969  0.55140145  0.48276705  1
  H  H498  1  0.35959420  0.83523837  0.49815882  1
  C  C499  1  0.46554021  0.53739222  0.35609341  1
  H  H500  1  0.26045036  0.99425372  0.28637595  1
  C  C501  1  0.01324491  0.61447510  0.36718702  1
  N  N502  1  0.15240030  0.51031364  0.33522648  1
  H  H503  1  0.48688273  0.87338900  0.25189341  1
  N  N504  1  0.11241148  0.99406505  0.33160118  1
  H  H505  1  0.34229934  0.70090677  0.48197859  1
  N  N506  1  0.47766883  0.84641486  0.45895418  1
  H  H507  1  0.49690491  0.94518382  0.47607633  1
  H  H508  1  0.14209431  0.53732767  0.48870463  1
  Zn  Zn509  1  0.27435745  0.89134736  0.56583993  1
  H  H510  1  0.01714647  0.51279221  0.52248654  1
  H  H511  1  0.39540791  0.58814077  0.56325588  1
  N  N512  1  0.45940015  0.80906748  0.61573327  1
  H  H513  1  0.09493266  0.51176357  0.62502225  1
  C  C514  1  0.31960832  0.86319572  0.64178609  1
  N  N515  1  0.01245217  0.62861271  0.64124219  1
  N  N516  1  0.30446459  0.54081883  0.55742449  1
  C  C517  1  0.26686141  0.75384530  0.55482189  1
  H  H518  1  0.41752364  0.75723284  0.56872481  1
  H  H519  1  0.38440452  0.58847566  0.64249612  1
  H  H520  1  0.09368255  0.97844764  0.66898865  1
  H  H521  1  0.49018601  0.82653191  0.72618483  1
  H  H522  1  0.19646425  0.96370992  0.64141203  1
  H  H523  1  0.37815701  0.67183125  0.62381740  1
  H  H524  1  0.26707853  0.74391861  0.71544055  1
  C  C525  1  0.11843152  0.59577744  0.57066032  1
  C  C526  1  0.40034579  0.71986977  0.62615463  1
  N  N527  1  0.11666630  0.51237044  0.73240010  1
  N  N528  1  0.26571527  0.95216864  0.52783656  1
  C  C529  1  0.36806805  0.54300977  0.56807148  1
  Zn  Zn530  1  0.22698845  0.95914932  0.72839918  1
  N  N531  1  0.46276677  0.61759612  0.68109572  1
  C  C532  1  0.30431533  0.59952490  0.69686212  1
  C  C533  1  0.07278168  0.93031546  0.66747018  1
  H  H534  1  0.13598319  0.61847496  0.59856437  1
  C  C535  1  0.05869078  0.53860066  0.53272757  1
  N  N536  1  0.42210965  0.74003860  0.65816587  1
  H  H537  1  0.11747766  0.62321471  0.64061117  1
  Zn  Zn538  1  0.25274372  0.61461210  0.53187107  1
  H  H539  1  0.37709094  0.95618864  0.62643913  1
  N  N540  1  0.25779072  0.91862534  0.68105952  1
  H  H541  1  0.05978149  0.89837136  0.72828431  1
  C  C542  1  0.05598306  0.88955862  0.69826096  1
  H  H543  1  0.00695872  0.80198812  0.63087497  1
  N  N544  1  0.27560811  0.89670244  0.62155225  1
  C  C545  1  0.26536279  0.69407023  0.70754058  1
  N  N546  1  0.29547598  0.80839191  0.54183442  1
  H  H547  1  0.37945200  0.53541367  0.50862350  1
  H  H548  1  0.35765612  0.83290299  0.63031838  1
  C  C549  1  0.23802238  0.93020060  0.64614148  1
  N  N550  1  0.28563870  0.70715159  0.53106018  1
  H  H551  1  0.48431993  0.82299531  0.67188297  1
  Zn  Zn552  1  0.04356608  0.93613296  0.58669140  1
  H  H553  1  0.23113106  0.75126644  0.57747658  1
  N  N554  1  0.05316313  0.89743799  0.63915855  1
  N  N555  1  0.06718478  0.85581578  0.55966062  1
  H  H556  1  0.10363461  0.72094290  0.69327552  1
  C  C557  1  0.43575713  0.58044310  0.65542046  1
  C  C558  1  0.05569585  0.84652340  0.52247956  1
  H  H559  1  0.16151850  0.65736830  0.70440853  1
  C  C560  1  0.46202776  0.79306472  0.65160354  1
  C  C561  1  0.12115618  0.55252175  0.51667805  1
  N  N562  1  0.15508656  0.58886400  0.53975481  1
  N  N563  1  0.32111783  0.66124844  0.70631253  1
  H  H564  1  0.11137342  0.97169827  0.51473617  1
  C  C565  1  0.09009529  0.75673611  0.54610455  1
  N  N566  1  0.23844720  0.59072733  0.69461174  1
  C  C567  1  0.06583832  0.69268384  0.68083744  1
  Zn  Zn568  1  0.42011644  0.69712499  0.71008463  1
  H  H569  1  0.03449574  0.88170878  0.50309151  1
  C  C570  1  0.21440940  0.65035025  0.70016528  1
  H  H571  1  0.33845687  0.56119854  0.69567427  1
  C  C572  1  0.42295087  0.76477995  0.59848443  1
  H  H573  1  0.39914318  0.95606384  0.72446811  1
  C  C574  1  0.41020429  0.98749443  0.60781594  1
  C  C575  1  0.07287887  0.64489962  0.65287966  1
  N  N576  1  0.05990400  0.56460090  0.56616404  1
  H  H577  1  0.13304246  0.83408435  0.72163152  1
  H  H578  1  0.10695280  0.80238630  0.60446100  1
  C  C579  1  0.30801193  0.87760972  0.67963123  1
  N  N580  1  0.46519024  0.96622708  0.59088698  1
  H  H581  1  0.10516372  0.70463772  0.54763556  1
  C  C582  1  0.09253678  0.80384145  0.57441011  1
  N  N583  1  0.06993527  0.78532029  0.51493917  1
  H  H584  1  0.32823248  0.85753507  0.70455599  1
  C  C585  1  0.37444020  0.97657888  0.74972026  1
  C  C586  1  0.33391940  0.79757225  0.51311710  1
  N  N587  1  0.00187204  0.70382443  0.68365606  1
  N  N588  1  0.02314744  0.83832874  0.68571981  1
  C  C589  1  0.08364150  0.99724682  0.73918320  1
  C  C590  1  0.32451929  0.73144709  0.50516344  1
  N  N591  1  0.48075990  0.53601072  0.64550860  1
  C  C592  1  0.02499425  0.84007103  0.64909127  1
  C  C593  1  0.25207402  0.97030923  0.89750102  1
  H  H594  1  0.00813322  0.61432928  0.91820578  1
  H  H595  1  0.09170076  0.76544660  0.78862672  1
  H  H596  1  0.10711844  0.96378271  0.86021774  1
  H  H597  1  0.11759889  0.70172550  0.87544102  1
  C  C598  1  0.46611733  0.74131927  0.97114159  1
  C  C599  1  0.06707093  0.91642549  0.97039104  1
  H  H600  1  0.33167570  0.90467997  0.95527255  1
  N  N601  1  0.40444898  0.97378225  0.92257164  1
  C  C602  1  0.24126634  0.90147038  0.89367493  1
  H  H603  1  0.07346407  0.96324406  0.76178106  1
  C  C604  1  0.04284884  0.76006228  0.91879712  1
  N  N605  1  0.10162204  0.59671569  0.87896080  1
  C  C606  1  0.12871770  0.80434292  0.78294054  1
  C  C607  1  0.15639267  0.95461072  0.87328762  1
  C  C608  1  0.28470739  0.51735600  0.93701450  1
  N  N609  1  0.34380371  0.76856958  0.87883162  1
  H  H610  1  0.36655486  0.74433273  0.93550393  1
  H  H611  1  0.22505402  0.75001148  0.93576161  1
  H  H612  1  0.39737372  0.93851412  0.83373487  1
  Zn  Zn613  1  0.44255198  0.79799218  0.86432352  1
  N  N614  1  0.15661411  0.83369780  0.81107369  1
  C  C615  1  0.48246567  0.82833900  0.78988561  1
  H  H616  1  0.39396157  0.58974411  0.86205603  1
  Zn  Zn617  1  0.42869156  0.54717683  0.77867898  1
  C  C618  1  0.00887775  0.81523115  0.86948979  1
  C  C619  1  0.35751953  0.60579180  0.84153376  1
  C  C620  1  0.12017457  0.55334438  0.90292639  1
  N  N621  1  0.48844667  0.98666491  0.98933067  1
  N  N622  1  0.23577149  0.77081548  0.87976540  1
  Zn  Zn623  1  0.04497943  0.58832608  0.83305377  1
  H  H624  1  0.07465101  0.73876720  0.94098207  1
  N  N625  1  0.47139776  0.63250641  0.97852074  1
  C  C626  1  0.15549240  0.58900327  0.93001788  1
  N  N627  1  0.26801397  0.64685818  0.81384948  1
  C  C628  1  0.25902471  0.75364379  0.91332161  1
  N  N629  1  0.45220874  0.78803784  0.81179978  1
  C  C630  1  0.02585116  0.91007141  0.93795471  1
  N  N631  1  0.00827641  0.66516056  0.80412204  1
  N  N632  1  0.15416963  0.65149114  0.92133240  1
  N  N633  1  0.35943260  0.58954980  0.80554383  1
  C  C634  1  0.12325721  0.54129201  0.76660562  1
  N  N635  1  0.06173635  0.79508277  0.88759096  1
  H  H636  1  0.29501438  0.99291924  0.90928275  1
  C  C637  1  0.39963809  0.99447371  0.88768018  1
  C  C638  1  0.40575909  0.94191794  0.86320393  1
  C  C639  1  0.12303954  0.65693953  0.88930628  1
  H  H640  1  0.18495745  0.56417499  0.95082121  1
  C  C641  1  0.30254914  0.94187351  0.97099914  1
  C  C642  1  0.29083852  0.77372759  0.85770994  1
  H  H643  1  0.39460027  0.70127340  0.80205455  1
  H  H644  1  0.00455913  0.86692703  0.92421434  1
  N  N645  1  0.18233682  0.89528491  0.87932650  1
  H  H646  1  0.28789579  0.79018868  0.82975428  1
  C  C647  1  0.42764098  0.73805660  0.79086575  1
  C  C648  1  0.32862116  0.75454400  0.91313644  1
  H  H649  1  0.27594265  0.66370245  0.87120741  1
  Zn  Zn650  1  0.14652295  0.81045876  0.86673824  1
  H  H651  1  0.27472624  0.86276802  0.90076171  1
  H  H652  1  0.22067781  0.91403606  0.81890470  1
  H  H653  1  0.08536903  0.88146917  0.99014773  1
  N  N654  1  0.07887674  0.97813487  0.97629819  1
  N  N655  1  0.41506967  0.88909772  0.88490047  1
  C  C656  1  0.29812292  0.63900738  0.84646242  1
  C  C657  1  0.19163741  0.88376950  0.79873344  1
  H  H658  1  0.32092752  0.55575132  0.94059183  1
  H  H659  1  0.42642730  0.88471172  0.94654410  1
  C  C660  1  0.41647073  0.91075133  0.92067967  1
  H  H661  1  0.17121833  0.55539060  0.77966465  1
  H  H662  1  0.47351063  0.79213642  0.96469576  1
  N  N663  1  0.01805487  0.96877005  0.92723069  1
  N  N664  1  0.06554930  0.54486373  0.78349235  1
  N  N665  1  0.18389594  0.88843788  0.76166321  1
  C  C666  1  0.30696378  0.61447295  0.78838930  1
  H  H667  1  0.28662786  0.67814050  0.98439617  1
  H  H668  1  0.05427930  0.65424898  0.75067343  1
  C  C669  1  0.02071642  0.51910003  0.76070066  1
  H  H670  1  0.15240424  0.67820561  0.98659607  1
  H  H671  1  0.01328725  0.84229029  0.84300434  1
  C  C672  1  0.49554927  0.68373184  0.95969342  1
  C  C673  1  0.02016960  0.68298802  0.76859299  1
  N  N674  1  0.42745478  0.72422579  0.99876455  1
  C  C675  1  0.14642021  0.84012760  0.75086539  1
  H  H676  1  0.19961673  0.89917870  0.97612547  1
  C  C677  1  0.25539593  0.70949718  0.99872269  1
  H  H678  1  0.10096461  0.50393337  0.90140886  1
  C  C679  1  0.23538596  0.93780704  0.98178088  1
  N  N680  1  0.44092138  0.75070137  0.75492200  1
  H  H681  1  0.29427918  0.61342615  0.75863111  1
  C  C682  1  0.47451753  0.80427410  0.75266314  1
  N  N683  1  0.31198319  0.98855576  0.75910302  1
  Zn  Zn684  1  0.58409694  0.25480035  0.01410701  1
  H  H685  1  0.93671677  0.40414067  0.05124952  1
  H  H686  1  0.94623088  0.13787808  0.17870807  1
  N  N687  1  0.96091941  0.30916859  0.03732342  1
  H  H688  1  0.99181441  0.36467268  0.12139806  1
  H  H689  1  0.58995376  0.31353741  0.18715316  1
  H  H690  1  0.80924343  0.16002154  0.14609633  1
  C  C691  1  0.92880521  0.28479056  0.15929379  1
  H  H692  1  0.62204986  0.12488776  0.06169655  1
  C  C693  1  0.76560104  0.15502526  0.02553819  1
  H  H694  1  0.72085160  0.29704388  0.20991797  1
  N  N695  1  0.74582062  0.48262383  0.06995479  1
  H  H696  1  0.52191694  0.42306970  0.04927549  1
  C  C697  1  0.98208868  0.33847766  0.09649910  1
  H  H698  1  0.53223191  0.08532007  0.22435230  1
  C  C699  1  0.65598306  0.12123716  0.13985363  1
  N  N700  1  0.54221654  0.24542677  0.22678059  1
  C  C701  1  0.71205656  0.18978417  0.17191783  1
  Zn  Zn702  1  0.55871679  0.42536065  0.13486425  1
  C  C703  1  0.69851385  0.41122936  0.15149795  1
  H  H704  1  0.90705788  0.41469503  0.10109862  1
  N  N705  1  0.63565539  0.38787585  0.15416200  1
  N  N706  1  0.55280277  0.25678720  0.06618828  1
  C  C707  1  0.99437438  0.11012467  0.17950615  1
  H  H708  1  0.84467694  0.40143493  0.02788615  1
  N  N709  1  0.73877658  0.37462835  0.17268594  1
  N  N710  1  0.72580904  0.12110398  0.04715832  1
  H  H711  1  0.71728984  0.45581447  0.13797827  1
  H  H712  1  0.71989297  0.23213138  0.18869935  1
  H  H713  1  0.68602345  0.46889102  0.02314922  1
  H  H714  1  0.82948651  0.29613283  0.24555896  1
  H  H715  1  0.50495635  0.44855446  0.24227795  1
  N  N716  1  0.54488504  0.23698685  0.12548436  1
  N  N717  1  0.84209978  0.03082805  0.09329121  1
  C  C718  1  0.95747957  0.35800503  0.06155004  1
  C  C719  1  0.72428935  0.20100108  0.00817720  1
  C  C720  1  0.90014854  0.19407963  0.22811772  1
  H  H721  1  0.99795164  0.02692724  0.11423708  1
  H  H722  1  0.84645515  0.11810686  0.19075287  1
  N  N723  1  0.99142155  0.26358692  0.16757562  1
  C  C724  1  0.50651427  0.07912971  0.19694188  1
  Zn  Zn725  1  0.56727882  0.20373327  0.17774331  1
  C  C726  1  0.70108840  0.33494188  0.19175007  1
  C  C727  1  0.75683781  0.15684172  0.14878088  1
  C  C728  1  0.63401866  0.34145959  0.17855205  1
  H  H729  1  0.63603751  0.21321660  0.09531207  1
  Zn  Zn730  1  0.74904325  0.06450504  0.08598275  1
  N  N731  1  0.91151393  0.32871853  0.18422766  1
  H  H732  1  0.61237859  0.09543874  0.12641080  1
  H  H733  1  0.89630252  0.27589900  0.13487796  1
  C  C734  1  0.58513224  0.23329663  0.09600588  1
  C  C735  1  0.53799089  0.46972568  0.05710378  1
  N  N736  1  0.86773089  0.46130889  0.14925459  1
  C  C737  1  0.66246007  0.14406608  0.04365639  1
  C  C738  1  0.95653393  0.33210389  0.21096529  1
  C  C739  1  0.85952910  0.13927481  0.21858501  1
  H  H740  1  0.90188993  0.11680460  0.08952970  1
  Zn  Zn741  1  0.83401651  0.38502743  0.17765241  1
  C  C742  1  0.89761622  0.06340314  0.09516150  1
  H  H743  1  0.95734231  0.36555464  0.23385761  1
  C  C744  1  0.55453604  0.45928454  0.24822070  1
  H  H745  1  0.81912523  0.15016807  0.02406939  1
  N  N746  1  0.65084070  0.16948868  0.16340659  1
  N  N747  1  0.72176533  0.11783428  0.12828218  1
  H  H748  1  0.92071780  0.23366641  0.21322003  1
  H  H749  1  0.68319848  0.07953530  0.22021516  1
  C  C750  1  0.89938835  0.46012764  0.11597845  1
  C  C751  1  0.98782895  0.26080142  0.05587668  1
  H  H752  1  0.98786293  0.02974474  0.22369732  1
  N  N753  1  0.66305343  0.19402010  0.01996205  1
  H  H754  1  0.51166308  0.11770738  0.02639855  1
  H  H755  1  0.58607480  0.00346904  0.19134641  1
  N  N756  1  0.51097158  0.12391090  0.17026359  1
  C  C757  1  0.94513003  0.01697590  0.10620482  1
  C  C758  1  0.68260884  0.02738992  0.21977708  1
  H  H759  1  0.63524037  0.27899743  0.24505031  1
  H  H760  1  0.95545827  0.15796035  0.01875241  1
  N  N761  1  0.55688656  0.48626705  0.09210720  1
  N  N762  1  0.99985163  0.27836090  0.09166148  1
  N  N763  1  0.85341376  0.10364645  0.24821153  1
  H  H764  1  0.90957814  0.45316483  0.24900968  1
  C  C765  1  0.88077041  0.49749945  0.24768665  1
  H  H766  1  0.80178401  0.24842947  0.31985218  1
  C  C767  1  0.52558926  0.13540000  0.48397231  1
  N  N768  1  0.94570081  0.06041808  0.43134139  1
  N  N769  1  0.51632750  0.10418909  0.45136568  1
  H  H770  1  0.99549886  0.38467050  0.40485130  1
  C  C771  1  0.92110430  0.37763191  0.32476929  1
  C  C772  1  0.94777330  0.44050411  0.32819820  1
  N  N773  1  0.60468927  0.08447232  0.29551304  1
  C  C774  1  0.72617200  0.47524639  0.44880560  1
  H  H775  1  0.99357508  0.09810274  0.37827563  1
  N  N776  1  0.91172714  0.18789156  0.26352809  1
  N  N777  1  0.81768790  0.49761253  0.25608040  1
  H  H778  1  0.68901013  0.15957243  0.39561511  1
  H  H779  1  0.87159274  0.35827067  0.33303305  1
  Zn  Zn780  1  0.83550782  0.42085982  0.49396938  1
  C  C781  1  0.96988956  0.44044892  0.46545238  1
  Zn  Zn782  1  0.86639924  0.11969013  0.43403235  1
  H  H783  1  0.64785588  0.44559022  0.33756969  1
  C  C784  1  0.97204508  0.02197099  0.45675531  1
  N  N785  1  0.93510751  0.24986417  0.49101635  1
  C  C786  1  0.88272956  0.13342617  0.27702452  1
  H  H787  1  0.57074930  0.40984315  0.37365468  1
  C  C788  1  0.70273534  0.29093211  0.29586670  1
  N  N789  1  0.87067949  0.33317773  0.48289964  1
  H  H790  1  0.94213175  0.01329432  0.31003976  1
  N  N791  1  0.55497777  0.25139288  0.39430254  1
  N  N792  1  0.61717208  0.19625849  0.35739775  1
  H  H793  1  0.66361450  0.31358750  0.31321925  1
  H  H794  1  0.96747942  0.17992400  0.37426497  1
  C  C795  1  0.73894023  0.10699895  0.47570364  1
  H  H796  1  0.76237581  0.18875641  0.38696612  1
  C  C797  1  0.51673985  0.48825964  0.44593536  1
  C  C798  1  0.89168602  0.31368468  0.44997876  1
  C  C799  1  0.64520900  0.18833260  0.38931490  1
  N  N800  1  0.86646151  0.17688698  0.39088971  1
  C  C801  1  0.83117349  0.22885783  0.34263664  1
  C  C802  1  0.91916371  0.19630587  0.37030112  1
  N  N803  1  0.70939091  0.22664070  0.28976646  1
  N  N804  1  0.55598851  0.48646565  0.41680364  1
  C  C805  1  0.93207466  0.25710637  0.45514803  1
  C  C806  1  0.60256838  0.22402862  0.41378968  1
  H  H807  1  0.98288554  0.39278681  0.47614505  1
  H  H808  1  0.87722910  0.11511278  0.30490327  1
  N  N809  1  0.96570455  0.34556037  0.30671062  1
  N  N810  1  0.80526846  0.09751409  0.47561290  1
  C  C811  1  0.61876946  0.02211621  0.29594243  1
  C  C812  1  0.81119080  0.19881889  0.37574022  1
  H  H813  1  0.95856380  0.22936691  0.43334374  1
  N  N814  1  0.89605603  0.22725490  0.33942896  1
  H  H815  1  0.71158715  0.13426872  0.45478020  1
  H  H816  1  0.88083309  0.33640972  0.42353158  1
  N  N817  1  0.90681718  0.46438831  0.46826605  1
  H  H818  1  0.92279035  0.48347427  0.33969067  1
  Zn  Zn819  1  0.65792998  0.15666955  0.31043543  1
  N  N820  1  0.75786489  0.47118619  0.48296786  1
  N  N821  1  0.74899364  0.47678409  0.32379316  1
  H  H822  1  0.66457571  0.00304409  0.30082007  1
  H  H823  1  0.51078295  0.13375873  0.28662483  1
  N  N824  1  0.75033528  0.32288309  0.27803040  1
  C  C825  1  0.99192730  0.06675883  0.40407170  1
  C  C826  1  0.54629009  0.43066725  0.39866014  1
  N  N827  1  0.54776243  0.29086649  0.28210808  1
  C  C828  1  0.69084992  0.48026887  0.34349490  1
  Zn  Zn829  1  0.95673910  0.24845425  0.29350192  1
  Zn  Zn830  1  0.75766279  0.41987450  0.27467390  1
  H  H831  1  0.74445587  0.45943783  0.42233754  1
  C  C832  1  0.55937160  0.23026202  0.35899804  1
  C  C833  1  0.75845868  0.21698469  0.26571056  1
  H  H834  1  0.60501402  0.22852331  0.44397981  1
  N  N835  1  0.50405550  0.39374170  0.41838731  1
  N  N836  1  0.51193304  0.03023129  0.28481838  1
  H  H837  1  0.94554750  0.01068952  0.48251040  1
  N  N838  1  0.66427455  0.45041210  0.25849023  1
  C  C839  1  0.53814207  0.08960716  0.28874954  1
  H  H840  1  0.77835525  0.17177487  0.25327546  1
  H  H841  1  0.52554688  0.24235940  0.33498996  1
  Zn  Zn842  1  0.82456977  0.01251320  0.25011969  1
  C  C843  1  0.78721063  0.27916823  0.26095930  1
  H  H844  1  0.56444516  0.16555502  0.49422389  1
  C  C845  1  0.60941510  0.41706622  0.25249450  1
  H  H846  1  0.61190470  0.36384294  0.25212838  1
  C  C847  1  0.58215922  0.27303248  0.25128561  1
  C  C848  1  0.80908125  0.38720503  0.60382743  1
  N  N849  1  0.71515158  0.36180920  0.66616012  1
  N  N850  1  0.61038140  0.27975145  0.58789289  1
  C  C851  1  0.71721985  0.17270517  0.65880706  1
  H  H852  1  0.81698018  0.39165731  0.63342613  1
  N  N853  1  0.94093668  0.39692534  0.66032617  1
  C  C854  1  0.86703420  0.15386364  0.74371022  1
  N  N855  1  0.73771172  0.10548669  0.61264113  1
  C  C856  1  0.75981688  0.38942540  0.72149053  1
  N  N857  1  0.93326420  0.25081513  0.62106648  1
  C  C858  1  0.57861654  0.22260740  0.59134429  1
  H  H859  1  0.88424108  0.29549751  0.53913267  1
  C  C860  1  0.73523564  0.10778662  0.64935280  1
  N  N861  1  0.95731243  0.49012891  0.63612595  1
  N  N862  1  0.71505877  0.20539631  0.62786289  1
  H  H863  1  0.66253394  0.07334649  0.51526242  1
  C  C864  1  0.72162400  0.49816321  0.50917786  1
  H  H865  1  0.86350916  0.42167663  0.69765660  1
  N  N866  1  0.80695923  0.40338423  0.54467667  1
  Zn  Zn867  1  0.99739379  0.19255253  0.51618701  1
  H  H868  1  0.65873973  0.44913272  0.66046370  1
  H  H869  1  0.84841044  0.26104156  0.74357547  1
  H  H870  1  0.60520755  0.35736097  0.55161022  1
  H  H871  1  0.53760119  0.01692545  0.55519524  1
  H  H872  1  0.72443306  0.18532585  0.57028279  1
  N  N873  1  0.53057305  0.21986493  0.56583544  1
  C  C874  1  0.56702332  0.16657476  0.71486080  1
  C  C875  1  0.58697725  0.31132122  0.56015043  1
  N  N876  1  0.95226571  0.21831825  0.56421314  1
  H  H877  1  0.72060040  0.33930060  0.53552852  1
  N  N878  1  0.90064411  0.22047176  0.70084151  1
  Zn  Zn879  1  0.68959181  0.30276885  0.62125726  1
  C  C880  1  0.91893891  0.15833051  0.69217925  1
  H  H881  1  0.87367007  0.06199277  0.51607308  1
  C  C882  1  0.72481891  0.16442116  0.59910325  1
  H  H883  1  0.75021022  0.06533144  0.66636441  1
  C  C884  1  0.89864294  0.43652959  0.67583803  1
  N  N885  1  0.71925629  0.43602290  0.70969010  1
  C  C886  1  0.83855640  0.42258928  0.57399090  1
  C  C887  1  0.75717130  0.36236751  0.55386442  1
  C  C888  1  0.69298273  0.41886436  0.67681208  1
  Zn  Zn889  1  0.94011438  0.03000698  0.73206722  1
  H  H890  1  0.58647789  0.18310196  0.61001119  1
  H  H891  1  0.70467827  0.19891266  0.68342373  1
  C  C892  1  0.61251428  0.45182208  0.59858983  1
  Zn  Zn893  1  0.94173730  0.29545307  0.67318540  1
  H  H894  1  0.78758459  0.29656989  0.69162508  1
  C  C895  1  0.82296787  0.07183543  0.50824062  1
  C  C896  1  0.75629732  0.34221211  0.69316561  1
  H  H897  1  0.71876460  0.48193126  0.60047032  1
  C  C898  1  0.97740904  0.42941372  0.63511336  1
  C  C899  1  0.86330044  0.21795154  0.73036707  1
  N  N900  1  0.75877854  0.35352394  0.59100645  1
  C  C901  1  0.97610704  0.25292103  0.59326971  1
  C  C902  1  0.57191557  0.09923526  0.72570733  1
  H  H903  1  0.88275239  0.45489078  0.57554391  1
  C  C904  1  0.71653481  0.07571002  0.50845180  1
  H  H905  1  0.50923319  0.42307292  0.68865379  1
  N  N906  1  0.90503799  0.12024444  0.72069935  1
  H  H907  1  0.83825550  0.20251360  0.62760950  1
  C  C908  1  0.89283506  0.19686143  0.57376522  1
  H  H909  1  0.63934563  0.33046434  0.72479147  1
  C  C910  1  0.88151924  0.03199705  0.63081900  1
  H  H911  1  0.50145249  0.28510212  0.51968289  1
  H  H912  1  0.86241413  0.16570098  0.55499223  1
  C  C913  1  0.53507953  0.27249914  0.54512892  1
  N  N914  1  0.76862930  0.05906054  0.52865075  1
  H  H915  1  0.60740282  0.40409718  0.61159885  1
  C  C916  1  0.88160294  0.21583280  0.61073062  1
  H  H917  1  0.95164196  0.14551455  0.66824415  1
  Zn  Zn918  1  0.76483109  0.03036775  0.58359908  1
  N  N919  1  0.56119239  0.48838457  0.59013827  1
  H  H920  1  0.85618613  0.06964267  0.64786894  1
  H  H921  1  0.79121052  0.39356791  0.74684647  1
  C  C922  1  0.89201704  0.28968996  0.50809719  1
  H  H923  1  0.59481072  0.19341493  0.69279511  1
  H  H924  1  0.97343747  0.08019539  0.57947984  1
  C  C925  1  0.66801393  0.49225471  0.59361026  1
  H  H926  1  0.60655154  0.06113434  0.71530157  1
  N  N927  1  0.51964809  0.18836676  0.73587249  1
  H  H928  1  0.59809107  0.00357382  0.58495803  1
  C  C929  1  0.90965944  0.49871307  0.65971706  1
  N  N930  1  0.85339647  0.00329928  0.60337267  1
  H  H931  1  0.99000257  0.02187058  0.64939001  1
  Zn  Zn932  1  0.50159790  0.28439363  0.73239192  1
  C  C933  1  0.50033123  0.38021990  0.67353404  1
  C  C934  1  0.94940614  0.00983241  0.63196618  1
  H  H935  1  0.73456795  0.49608370  0.53792988  1
  H  H936  1  0.55933241  0.48783389  0.74324702  1
  H  H937  1  0.67665017  0.16422758  0.92518066  1
  H  H938  1  0.78389743  0.38425964  0.85529944  1
  H  H939  1  0.84759486  0.00189728  0.93832233  1
  C  C940  1  0.54269097  0.41035330  0.83477541  1
  H  H941  1  0.54326437  0.26042721  0.81950819  1
  C  C942  1  0.87449392  0.33782010  0.82969785  1
  H  H943  1  0.73484908  0.31765499  0.78611738  1
  H  H944  1  0.82296066  0.18870462  0.82861079  1
  H  H945  1  0.84675428  0.13560868  0.77060743  1
  C  C946  1  0.67681220  0.06885405  0.85366613  1
  C  C947  1  0.67324719  0.14386245  0.89738014  1
  H  H948  1  0.91505224  0.37199613  0.82354860  1
  H  H949  1  0.64247036  0.00936119  0.97265255  1
  C  C950  1  0.67930043  0.31321278  0.78417039  1
  H  H951  1  0.67940650  0.41286748  0.87290734  1
  C  C952  1  0.53363336  0.46810905  0.81322952  1
  H  H953  1  0.92537617  0.14228254  0.86536424  1
  H  H954  1  0.57595655  0.22860866  0.86590862  1
  H  H955  1  0.68472158  0.36811795  0.98792013  1
  N  N956  1  0.98069343  0.05699481  0.84297659  1
  C  C957  1  0.92317468  0.15976565  0.99442859  1
  N  N958  1  0.51221448  0.20180758  0.99276833  1
  H  H959  1  0.58474300  0.38778813  0.84949599  1
  N  N960  1  0.57829710  0.29595634  0.76674179  1
  N  N961  1  0.90807257  0.21117933  0.97345652  1
  C  C962  1  0.87303534  0.19172215  0.94494533  1
  N  N963  1  0.81075760  0.45104827  0.94286008  1
  H  H964  1  0.87475020  0.38626344  0.91088780  1
  H  H965  1  0.58747268  0.22526719  0.92420040  1
  C  C966  1  0.52926019  0.19804781  0.86843525  1
  N  N967  1  0.73825573  0.49260263  0.85603287  1
  C  C968  1  0.67428207  0.12953217  0.83799456  1
  H  H969  1  0.76098805  0.08016768  0.98358187  1
  C  C970  1  0.79949484  0.45351541  0.97942966  1
  C  C971  1  0.80930704  0.34113556  0.84465474  1
  N  N972  1  0.88031047  0.27776037  0.82127555  1
  N  N973  1  0.67365024  0.17488040  0.86530982  1
  C  C974  1  0.75199227  0.02739390  0.98349564  1
  N  N975  1  0.65575581  0.30010689  0.90816848  1
  N  N976  1  0.89684603  0.10603406  0.97965108  1
  H  H977  1  0.79715716  0.03360342  0.77297070  1
  C  C978  1  0.95687847  0.11749025  0.84365524  1
  H  H979  1  0.54808280  0.09124330  0.85456492  1
  H  H980  1  0.72503753  0.37589549  0.91302352  1
  C  C981  1  0.69681303  0.44392100  0.85194941  1
  Zn  Zn982  1  0.93654958  0.30700779  0.98316531  1
  C  C983  1  0.66583108  0.34309439  0.96327442  1
  H  H984  1  0.63143557  0.47064022  0.93843120  1
  Zn  Zn985  1  0.89506691  0.00886692  0.99575540  1
  C  C986  1  0.68190317  0.44460407  0.81294393  1
  C  C987  1  0.61357669  0.27143405  0.93182437  1
  Zn  Zn988  1  0.68398307  0.26769186  0.86008457  1
  C  C989  1  0.68850472  0.34557347  0.92597740  1
  N  N990  1  0.62087372  0.29550886  0.96646427  1
  C  C991  1  0.82570775  0.24272545  0.82962817  1
  N  N992  1  0.78083525  0.28440089  0.84153527  1
  N  N993  1  0.67416047  0.07888718  0.89061559  1
  C  C994  1  0.58340149  0.28010995  0.80360878  1
  C  C995  1  0.51479280  0.13218978  0.86241471  1
  N  N996  1  0.86828418  0.37512570  0.97227476  1
  C  C997  1  0.86504075  0.12474433  0.94909594  1
  C  C998  1  0.63444594  0.31922822  0.75439629  1
  C  C999  1  0.85069540  0.40045002  0.93849170  1
  N  N1000  1  0.64650910  0.28771388  0.81373769  1
  H  H1001  1  0.67893807  0.14490335  0.80818530  1
  H  H1002  1  0.85629184  0.22325489  0.92347698  1
  H  H1003  1  0.64985650  0.41185296  0.79640315  1
  H  H1004  1  0.52267826  0.44854056  0.89837495  1
  H  H1005  1  0.83514473  0.09472496  0.93008067  1
  H  H1006  1  0.68394614  0.01875172  0.84245312  1
  H  H1007  1  0.73695139  0.24171342  0.98738272  1
  Zn  Zn1008  1  0.96404175  0.23820826  0.80061777  1
  N  N1009  1  0.71464522  0.49156142  0.79694781  1
  H  H1010  1  0.76490987  0.48653690  0.99337422  1
  N  N1011  1  0.97864194  0.14639769  0.81282573  1
  C  C1012  1  0.83861714  0.40803674  0.99849172  1
  N  N1013  1  0.52649836  0.08847945  0.75155047  1
  Zn  Zn1014  1  0.75957408  0.67371716  0.08825038  1
  C  C1015  1  0.89519587  0.56120350  0.13149907  1
  N  N1016  1  0.57501030  0.68437092  0.24330119  1
  H  H1017  1  0.70340045  0.93962388  0.04046406  1
  C  C1018  1  0.71016531  0.77508560  0.03201321  1
  N  N1019  1  0.84670500  0.72378117  0.09368768  1
  H  H1020  1  0.61682433  0.66297544  0.06581595  1
  C  C1021  1  0.86768979  0.57624617  0.02714883  1
  N  N1022  1  0.93129366  0.90400058  0.17733933  1
  C  C1023  1  0.63553953  0.70610585  0.04977576  1
  H  H1024  1  0.84814831  0.53415116  0.18781535  1
  N  N1025  1  0.66267386  0.89951516  0.12684191  1
  C  C1026  1  0.85323280  0.78459518  0.10536880  1
  C  C1027  1  0.85255623  0.96635610  0.10149073  1
  C  C1028  1  0.51368349  0.71613522  0.10540177  1
  C  C1029  1  0.76491515  0.53428219  0.09100357  1
  N  N1030  1  0.65285563  0.78817569  0.01367816  1
  C  C1031  1  0.66128196  0.88280957  0.09216395  1
  H  H1032  1  0.85109042  0.71298612  0.15794839  1
  N  N1033  1  0.53844668  0.52146352  0.03559541  1
  H  H1034  1  0.55618949  0.74722829  0.00836495  1
  H  H1035  1  0.91171552  0.64776768  0.07957355  1
  Zn  Zn1036  1  0.61747034  0.84613979  0.17207498  1
  C  C1037  1  0.96720398  0.71496390  0.20449767  1
  H  H1038  1  0.70403899  0.98786864  0.15369883  1
  H  H1039  1  0.79131070  0.52923304  0.11725754  1
  N  N1040  1  0.91800006  0.79707282  0.11113803  1
  C  C1041  1  0.91555341  0.88256798  0.02696458  1
  C  C1042  1  0.69363570  0.95736002  0.12984860  1
  N  N1043  1  0.91705578  0.95831834  0.10814299  1
  C  C1044  1  0.70921558  0.50234350  0.04287272  1
  H  H1045  1  0.81370360  0.81982571  0.11157725  1
  H  H1046  1  0.61818685  0.75519965  0.10213500  1
  H  H1047  1  0.94729137  0.68355106  0.18314885  1
  C  C1048  1  0.94265745  0.86856904  0.20648465  1
  C  C1049  1  0.70966817  0.92588542  0.22298219  1
  H  H1050  1  0.68377427  0.60258282  0.02515493  1
  H  H1051  1  0.57094210  0.69151989  0.18249804  1
  N  N1052  1  0.70957500  0.97669731  0.09579112  1
  H  H1053  1  0.75852330  0.79654475  0.03104317  1
  N  N1054  1  0.74482890  0.58834056  0.07425560  1
  Zn  Zn1055  1  0.95977640  0.87974858  0.12510475  1
  N  N1056  1  0.54994422  0.79459595  0.14131067  1
  N  N1057  1  0.75334005  0.68000041  0.14407970  1
  C  C1058  1  0.56679785  0.54878298  0.09313710  1
  H  H1059  1  0.92096918  0.90713104  0.05308971  1
  C  C1060  1  0.95211274  0.74570662  0.10290893  1
  H  H1061  1  0.56806221  0.61922178  0.04333431  1
  C  C1062  1  0.91066962  0.90172029  0.23629064  1
  N  N1063  1  0.93036458  0.58726918  0.03271442  1
  H  H1064  1  0.65709952  0.64072485  0.15369270  1
  N  N1065  1  0.92833179  0.73065779  0.23406252  1
  H  H1066  1  0.90005970  0.61219877  0.13082856  1
  C  C1067  1  0.91554947  0.81560490  0.01794513  1
  H  H1068  1  0.97732670  0.82692270  0.20455871  1
  N  N1069  1  0.69794737  0.72608079  0.05422835  1
  C  C1070  1  0.60650668  0.74766764  0.02210302  1
  H  H1071  1  0.63736023  0.83490488  0.08489493  1
  C  C1072  1  0.69287061  0.93297387  0.07131183  1
  N  N1073  1  0.88120200  0.95375362  0.22315221  1
  C  C1074  1  0.72059230  0.67052562  0.20226084  1
  C  C1075  1  0.70960630  0.57041261  0.04386336  1
  C  C1076  1  0.80242173  0.69797039  0.16733108  1
  H  H1077  1  0.81389548  0.92919484  0.10348904  1
  C  C1078  1  0.86518476  0.52247798  0.15932747  1
  C  C1079  1  0.70278464  0.66092635  0.16437470  1
  C  C1080  1  0.56861057  0.75511299  0.11413589  1
  C  C1081  1  0.54544927  0.92674443  0.02540203  1
  C  C1082  1  0.62980609  0.98730885  0.20700986  1
  C  C1083  1  0.89535948  0.95673899  0.18643072  1
  C  C1084  1  0.90541207  0.69894190  0.08885901  1
  H  H1085  1  0.88703181  0.99184384  0.16480792  1
  H  H1086  1  0.57624912  0.57649636  0.11824714  1
  H  H1087  1  0.56964775  0.90184635  0.04732719  1
  N  N1088  1  0.78202777  0.68942560  0.20301898  1
  C  C1089  1  0.58575653  0.71209241  0.21020532  1
  N  N1090  1  0.72793076  0.98669268  0.23062211  1
  H  H1091  1  0.83878186  0.53806005  0.04107277  1
  C  C1092  1  0.55682758  0.57147958  0.05648106  1
  N  N1093  1  0.65358203  0.92800913  0.20387416  1
  H  H1094  1  0.69180179  0.65675749  0.22798840  1
  N  N1095  1  0.60170568  0.77420954  0.21547143  1
  H  H1096  1  0.92819328  0.77168099  0.03326487  1
  H  H1097  1  0.74440613  0.88065508  0.22762226  1
  N  N1098  1  0.91907896  0.51915762  0.10668368  1
  H  H1099  1  0.50558129  0.67722824  0.08419310  1
  C  C1100  1  0.95334792  0.63083960  0.00709126  1
  Zn  Zn1101  1  0.98425766  0.54998838  0.07020115  1
  N  N1102  1  0.84929297  0.59748440  0.24740689  1
  C  C1103  1  0.90181486  0.56169231  0.24270583  1
  H  H1104  1  0.95175625  0.58249202  0.23702140  1
  Zn  Zn1105  1  0.84153562  0.69710050  0.24750283  1
  C  C1106  1  0.84722837  0.62301868  0.00031956  1
  N  N1107  1  0.84497252  0.91725200  0.35261118  1
  H  H1108  1  0.90360690  0.58387367  0.30298997  1
  H  H1109  1  0.94144868  0.77277829  0.28355841  1
  Zn  Zn1110  1  0.62722652  0.55004762  0.40876115  1
  C  C1111  1  0.58889704  0.72742366  0.26888182  1
  N  N1112  1  0.69250328  0.52981119  0.36620579  1
  N  N1113  1  0.63516616  0.86027621  0.44100589  1
  C  C1114  1  0.67837473  0.83230883  0.41811180  1
  H  H1115  1  0.64272121  0.67857184  0.46007154  1
  H  H1116  1  0.86211545  0.81456102  0.30169119  1
  C  C1117  1  0.92663011  0.79866297  0.48534358  1
  H  H1118  1  0.86065081  0.54957968  0.44652898  1
  N  N1119  1  0.59574400  0.63764032  0.41040479  1
  H  H1120  1  0.68000454  0.78124236  0.41030340  1
  N  N1121  1  0.80790179  0.72611151  0.29592331  1
  N  N1122  1  0.56348586  0.73299219  0.43189974  1
  C  C1123  1  0.54813262  0.65854727  0.38880039  1
  C  C1124  1  0.76578649  0.72774424  0.35201578  1
  N  N1125  1  0.72970781  0.87360261  0.41055046  1
  C  C1126  1  0.51543289  0.54695131  0.32854436  1
  N  N1127  1  0.84530400  0.97826624  0.30261288  1
  C  C1128  1  0.91504262  0.64632131  0.35386724  1
  H  H1129  1  0.93570302  0.94202377  0.37770968  1
  H  H1130  1  0.73921119  0.97650163  0.41929426  1
  H  H1131  1  0.82946023  0.85444814  0.47868692  1
  H  H1132  1  0.87078987  0.67185368  0.35978606  1
  N  N1133  1  0.96711965  0.77625667  0.45966903  1
  C  C1134  1  0.82964725  0.77864693  0.31376175  1
  N  N1135  1  0.80288733  0.78040390  0.34903550  1
  H  H1136  1  0.76149026  0.91181059  0.31661109  1
  C  C1137  1  0.71081489  0.93103018  0.42404978  1
  C  C1138  1  0.77143578  0.69126367  0.31919690  1
  Zn  Zn1139  1  0.56174288  0.80854128  0.46420418  1
  N  N1140  1  0.96543995  0.65462438  0.37843292  1
  C  C1141  1  0.87083007  0.82521767  0.46728157  1
  C  C1142  1  0.81107195  0.93375296  0.32151005  1
  C  C1143  1  0.93476096  0.78388278  0.42625189  1
  H  H1144  1  0.52073092  0.53073855  0.46527566  1
  C  C1145  1  0.60562761  0.68326705  0.43718613  1
  N  N1146  1  0.67675307  0.51535056  0.45326147  1
  H  H1147  1  0.73931566  0.71894843  0.37838747  1
  H  H1148  1  0.77119648  0.59971163  0.37828478  1
  C  C1149  1  0.66887456  0.52783185  0.48976013  1
  Zn  Zn1150  1  0.81625830  0.84954482  0.38762054  1
  C  C1151  1  0.55843277  0.98622598  0.29129522  1
  H  H1152  1  0.55981939  0.52087957  0.32542409  1
  C  C1153  1  0.78633650  0.52491354  0.33510841  1
  C  C1154  1  0.93445667  0.60108593  0.32754182  1
  N  N1155  1  0.87773789  0.81515821  0.43102073  1
  C  C1156  1  0.65031375  0.92284553  0.44276041  1
  Zn  Zn1157  1  0.53189560  0.59621481  0.25080037  1
  C  C1158  1  0.90024601  0.94817964  0.35545359  1
  H  H1159  1  0.61883964  0.83338846  0.26180245  1
  C  C1160  1  0.90632386  0.52026366  0.44983084  1
  H  H1161  1  0.57900712  0.71883841  0.29925943  1
  H  H1162  1  0.95451963  0.77217434  0.40020306  1
  H  H1163  1  0.90151234  0.88441791  0.26392143  1
  H  H1164  1  0.68202627  0.55419817  0.26825905  1
  C  C1165  1  0.75109147  0.55860505  0.36279633  1
  N  N1166  1  0.99506630  0.58340226  0.33634853  1
  C  C1167  1  0.52828560  0.72107021  0.40223340  1
  H  H1168  1  0.75307936  0.64233572  0.31224721  1
  C  C1169  1  0.96388413  0.76242733  0.25768154  1
  C  C1170  1  0.64803507  0.51266496  0.26015454  1
  H  H1171  1  0.74636210  0.58127834  0.25985672  1
  H  H1172  1  0.52949790  0.62649903  0.36727540  1
  C  C1173  1  0.97132161  0.53339591  0.43709811  1
  H  H1174  1  0.99031797  0.57565593  0.42264873  1
  C  C1175  1  0.79729320  0.56042858  0.25390155  1
  H  H1176  1  0.54674079  0.93561228  0.29031038  1
  C  C1177  1  0.69067524  0.78873072  0.49801748  1
  H  H1178  1  0.83279251  0.53345281  0.32193681  1
  N  N1179  1  0.58249590  0.51666215  0.25214363  1
  C  C1180  1  0.90016293  0.98679558  0.32219065  1
  H  H1181  1  0.70545097  0.83032644  0.48015712  1
  H  H1182  1  0.62791932  0.55579373  0.49939150  1
  H  H1183  1  0.62271972  0.95504559  0.46199560  1
  N  N1184  1  0.62816715  0.77106505  0.49844702  1
  C  C1185  1  0.60660791  0.78587514  0.25073482  1
  H  H1186  1  0.73772387  0.62053061  0.68273089  1
  C  C1187  1  0.86884814  0.86441300  0.67293493  1
  H  H1188  1  0.50243113  0.99599013  0.68269572  1
  H  H1189  1  0.58105974  0.68772368  0.52583839  1
  C  C1190  1  0.60076023  0.71382083  0.65366597  1
  H  H1191  1  0.77897638  0.74129027  0.52859361  1
  H  H1192  1  0.88369575  0.54507970  0.66074421  1
  H  H1193  1  0.93011095  0.64053848  0.72663135  1
  C  C1194  1  0.96885544  0.66505512  0.65926336  1
  C  C1195  1  0.58212778  0.89386338  0.73190922  1
  H  H1196  1  0.57682731  0.63421659  0.61029036  1
  C  C1197  1  0.61114099  0.67014596  0.62341302  1
  C  C1198  1  0.84435880  0.57626176  0.74304310  1
  C  C1199  1  0.71277553  0.89759261  0.59530801  1
  N  N1200  1  0.69647247  0.95919707  0.58853443  1
  H  H1201  1  0.80562015  0.74801939  0.72033338  1
  H  H1202  1  0.57938996  0.51478213  0.66053222  1
  C  C1203  1  0.62363277  0.71713541  0.51985387  1
  H  H1204  1  0.93752637  0.79314584  0.51465464  1
  N  N1205  1  0.87729924  0.81182397  0.69330693  1
  N  N1206  1  0.90659857  0.58174204  0.57663473  1
  Zn  Zn1207  1  0.50524861  0.87853705  0.59392988  1
  C  C1208  1  0.63092556  0.96155571  0.58551535  1
  H  H1209  1  0.55291517  0.58345795  0.56368121  1
  N  N1210  1  0.53931081  0.94386152  0.72869336  1
  N  N1211  1  0.64914515  0.54747282  0.57799712  1
  H  H1212  1  0.90860781  0.89475326  0.66287402  1
  H  H1213  1  0.91586395  0.66730614  0.65640831  1
  H  H1214  1  0.64598260  0.81023352  0.59919570  1
  Zn  Zn1215  1  0.96478256  0.77424329  0.71202086  1
  C  C1216  1  0.89786309  0.58013695  0.54062037  1
  H  H1217  1  0.76447094  0.88363228  0.59172676  1
  C  C1218  1  0.78169394  0.61233780  0.69918726  1
  H  H1219  1  0.83579231  0.59618295  0.62096535  1
  N  N1220  1  0.67268627  0.78627945  0.74895406  1
  N  N1221  1  0.60523589  0.90201460  0.58943476  1
  N  N1222  1  0.80127460  0.60248313  0.56584439  1
  C  C1223  1  0.89843201  0.96591565  0.58592228  1
  Zn  Zn1224  1  0.70635448  0.62767028  0.56872839  1
  N  N1225  1  0.68333389  0.69955754  0.53243390  1
  N  N1226  1  0.67137248  0.67715304  0.61143859  1
  N  N1227  1  0.78461144  0.57115985  0.72820293  1
  C  C1228  1  0.84707142  0.59451406  0.59235135  1
  C  C1229  1  0.52367261  0.59791136  0.68738730  1
  H  H1230  1  0.75290365  0.74266549  0.62522587  1
  C  C1231  1  0.79965879  0.87594568  0.66968899  1
  H  H1232  1  0.80052202  0.59887594  0.50739898  1
  H  H1233  1  0.76819265  0.91056096  0.65408247  1
  N  N1234  1  0.65921675  0.74343079  0.65813996  1
  C  C1235  1  0.70276675  0.72315090  0.63293077  1
  Zn  Zn1236  1  0.67383436  0.80780977  0.69298948  1
  C  C1237  1  0.72583071  0.74127884  0.51837119  1
  Zn  Zn1238  1  0.71266316  0.51533527  0.74262061  1
  C  C1239  1  0.57088111  0.90887897  0.67321113  1
  H  H1240  1  0.55664483  0.61913555  0.70681491  1
  N  N1241  1  0.83994438  0.64587508  0.69654063  1
  N  N1242  1  0.77052391  0.83073315  0.68843425  1
  C  C1243  1  0.53604981  0.54421290  0.66400481  1
  C  C1244  1  0.87988113  0.62301833  0.72252356  1
  Zn  Zn1245  1  0.99079091  0.56301695  0.60320072  1
  C  C1246  1  0.83005202  0.59584412  0.53338311  1
  C  C1247  1  0.52820732  0.95274402  0.69318720  1
  C  C1248  1  0.81589704  0.79157811  0.70363108  1
  C  C1249  1  0.58257026  0.54199975  0.57360361  1
  N  N1250  1  0.95678991  0.97387318  0.60289234  1
  H  H1251  1  0.57490527  0.90301606  0.64137123  1
  H  H1252  1  0.56127546  0.71993309  0.67288464  1
  N  N1253  1  0.60139633  0.87464190  0.69789807  1
  C  C1254  1  0.65366487  0.86167725  0.59658415  1
  H  H1255  1  0.88874865  0.94030692  0.55910237  1
  H  H1256  1  0.93887204  0.56858192  0.52064577  1
  C  C1257  1  0.56781280  0.53874197  0.74584089  1
  N  N1258  1  0.62806425  0.56837615  0.74723338  1
  H  H1259  1  0.51919456  0.87774837  0.92952450  1
  C  C1260  1  0.62906407  0.78941704  0.80523863  1
  N  N1261  1  0.87490074  0.97216152  0.75707235  1
  C  C1262  1  0.69220314  0.99054261  0.97770722  1
  C  C1263  1  0.64574578  0.51953942  0.94413519  1
  H  H1264  1  0.53741179  0.96546767  0.93765771  1
  C  C1265  1  0.96660791  0.59285448  0.90569428  1
  H  H1266  1  0.53652207  0.67561346  0.94061782  1
  H  H1267  1  0.89545417  0.87979849  0.93821525  1
  H  H1268  1  0.80765660  0.83562849  0.92842100  1
  C  C1269  1  0.77319566  0.92630574  0.98984748  1
  H  H1270  1  0.60227133  0.91352541  0.89579355  1
  C  C1271  1  0.77695176  0.93920636  0.90551023  1
  C  C1272  1  0.71898690  0.80575511  0.77301273  1
  N  N1273  1  0.96342638  0.57868146  0.87020690  1
  N  N1274  1  0.97792924  0.75713632  0.91892178  1
  C  C1275  1  0.79452896  0.92936272  0.79073703  1
  C  C1276  1  0.94293909  0.74728664  0.78772960  1
  N  N1277  1  0.86786229  0.55211235  0.89590821  1
  C  C1278  1  0.75096883  0.52087506  0.82342686  1
  N  N1279  1  0.76016401  0.77897044  0.88511064  1
  C  C1280  1  0.90460451  0.87119163  0.96758252  1
  C  C1281  1  0.60525112  0.92900337  0.86698449  1
  C  C1282  1  0.88713956  0.90930063  0.76272990  1
  C  C1283  1  0.90241462  0.55491541  0.86340714  1
  H  H1284  1  0.86861002  0.89902161  0.83766196  1
  H  H1285  1  0.76742801  0.82159273  0.76138689  1
  Zn  Zn1286  1  0.51685626  0.53693033  0.98140979  1
  Zn  Zn1287  1  0.71877385  0.84910984  0.85302482  1
  H  H1288  1  0.73056383  0.69919401  0.85323372  1
  H  H1289  1  0.88748072  0.53892993  0.83504569  1
  N  N1290  1  0.60622459  0.56069786  0.96369336  1
  C  C1291  1  0.96216464  0.70447346  0.81687303  1
  H  H1292  1  0.73503327  0.64675173  0.93975835  1
  N  N1293  1  0.87779799  0.96070065  0.88626891  1
  N  N1294  1  0.90692866  0.81234369  0.98213257  1
  H  H1295  1  0.81895645  0.63450549  0.89876945  1
  C  C1296  1  0.95509917  0.78672501  0.88914124  1
  H  H1297  1  0.85915485  0.54658931  0.76564376  1
  H  H1298  1  0.93370048  0.69493692  0.84184577  1
  C  C1299  1  0.75824457  0.71701124  0.87666636  1
  C  C1300  1  0.79637981  0.78729546  0.91520858  1
  N  N1301  1  0.69151911  0.80997414  0.80707253  1
  C  C1302  1  0.84710521  0.91955298  0.86205240  1
  C  C1303  1  0.63906544  0.61561483  0.96686312  1
  Zn  Zn1304  1  0.64645615  0.85926407  0.97894081  1
  H  H1305  1  0.74997311  0.92257983  0.80889651  1
  C  C1306  1  0.53399919  0.95715767  0.96802615  1
  H  H1307  1  0.96655692  0.51918170  0.76612467  1
  C  C1308  1  0.54576887  0.83512901  0.92144181  1
  H  H1309  1  0.72885334  0.93990288  0.92043722  1
  H  H1310  1  0.78840225  0.55783619  0.81633500  1
  C  C1311  1  0.62476194  0.76555549  0.91751392  1
  H  H1312  1  0.88907353  0.57262322  0.95117697  1
  N  N1313  1  0.98204989  0.73264312  0.75895305  1
  H  H1314  1  0.53033403  0.67250635  0.78119973  1
  N  N1315  1  0.78708629  0.90629248  0.87428450  1
  C  C1316  1  0.57293422  0.74732320  0.89295714  1
  Zn  Zn1317  1  0.90564625  0.72319932  0.95624820  1
  H  H1318  1  0.59403343  0.79469107  0.82940539  1
  N  N1319  1  0.60602235  0.81753099  0.93515608  1
  H  H1320  1  0.61605339  0.65625689  0.98222536  1
  N  N1321  1  0.70151292  0.54958221  0.93397909  1
  N  N1322  1  0.65037423  0.91481720  0.84278112  1
  Zn  Zn1323  1  0.77805918  0.51536976  0.90589191  1
  H  H1324  1  0.80039653  0.88368636  0.99498738  1
  N  N1325  1  0.79937442  0.98619477  0.99050656  1
  N  N1326  1  0.52555295  0.79103093  0.89651758  1
  C  C1327  1  0.80169358  0.68378838  0.90095367  1
  N  N1328  1  0.82539391  0.72937800  0.92256768  1
  H  H1329  1  0.65682108  0.93046717  0.78293019  1
  H  H1330  1  0.56716004  0.70776064  0.87214693  1
  H  H1331  1  0.60474850  0.87976790  0.76019078  1
  C  C1332  1  0.90623803  0.57431362  0.92259230  1
  C  C1333  1  0.69997638  0.60981174  0.94667243  1
  H  H1334  1  0.89986967  0.79741277  0.88509155  1
  N  N1335  1  0.70848043  0.92836417  0.98064660  1
  H  H1336  1  0.66617359  0.65738968  0.76692946  1
  N  N1337  1  0.56712727  0.91906083  0.99075749  1
  N  N1338  1  0.57334876  0.97137207  0.81273099  1
  C  C1339  1  0.63024435  0.93989217  0.80901917  1
  N  N1340  1  0.90017316  0.65487858  0.98861292  1
  H  H1341  1  0.67027932  0.74047458  0.92082411  1
  C  C1342  1  0.55272846  0.63086885  0.76844824  1
  H  H1343  1  0.89923863  0.78007155  0.78508855  1
  C  C1344  1  0.83723407  0.97178735  0.91391982  1
  C  C1345  1  0.55480043  0.96495549  0.84738189  1
  N  N1346  1  0.83784939  0.88442740  0.78379615  1
  C  C1347  1  0.61888088  0.77030247  0.76757561  1
  H  H1348  1  0.79786956  0.63067050  0.98969009  1
  H  H1349  1  0.50744644  0.87132348  0.80119480  1
  C  C1350  1  0.62241073  0.62613925  0.76110725  1
  N  N1351  1  0.52000652  0.57755004  0.76027522  1
  H  H1352  1  0.57013164  0.50399702  0.80359817  1
  Zn  Zn1353  1  0.97222053  0.98993937  0.88155013  1
  N  N1354  1  0.91235495  0.91566249  0.99460625  1
  C  C1355  1  0.81764346  0.98597677  0.77301059  1
  H  H1356  1  0.50782619  0.98355926  0.85778351  1
  H  H1357  1  0.93584260  0.89135098  0.75614055  1
  Zn  Zn1358  1  0.51173041  0.99996899  0.77114891  1
  H  H1359  1  0.57059443  0.75424575  0.75515618  1
