# generated using pymatgen
data_ZnH6(C3N2)2
_symmetry_space_group_name_H-M   'P 1'
_cell_length_a   19.61774993
_cell_length_b   16.47488992
_cell_length_c   29.66236652
_cell_angle_alpha   90.00000000
_cell_angle_beta   90.00000000
_cell_angle_gamma   90.00000000
_symmetry_Int_Tables_number   1
_chemical_formula_structural   ZnH6(C3N2)2
_chemical_formula_sum   'Zn48 H288 C288 N192'
_cell_volume   9586.88488398
_cell_formula_units_Z   48
loop_
 _symmetry_equiv_pos_site_id
 _symmetry_equiv_pos_as_xyz
  1  'x, y, z'
loop_
 _atom_site_type_symbol
 _atom_site_label
 _atom_site_symmetry_multiplicity
 _atom_site_fract_x
 _atom_site_fract_y
 _atom_site_fract_z
 _atom_site_occupancy
  N  N0  1  0.09732590  0.22231687  0.10202446  1
  Zn  Zn1  1  0.14604809  0.33078733  0.10091139  1
  N  N2  1  0.19974243  0.31846110  0.03915483  1
  N  N3  1  0.10277748  0.43526656  0.09800204  1
  H  H4  1  0.16268348  0.34435553  0.01690926  1
  Zn  Zn5  1  0.14671017  0.20369725  0.03617912  1
  Zn  Zn6  1  0.04787634  0.43268105  0.15732039  1
  C  C7  1  0.09353785  0.17941304  0.13723648  1
  N  N8  1  0.03186217  0.34693327  0.20784824  1
  N  N9  1  0.21655693  0.31910112  0.14918579  1
  H  H10  1  0.18562458  0.39925943  0.20110355  1
  C  C11  1  0.04249668  0.20333920  0.10711887  1
  H  H12  1  0.10173650  0.18896659  0.17509436  1
  N  N13  1  0.11075379  0.09453221  0.01932784  1
  C  C14  1  0.10211167  0.48271065  0.06968637  1
  C  C15  1  0.11859735  0.01864103  0.03689329  1
  H  H16  1  0.22042535  0.09471520  0.13199069  1
  N  N17  1  0.23669852  0.13335501  0.05852537  1
  C  C18  1  0.04250204  0.31245603  0.00305382  1
  C  C19  1  0.22211610  0.35726124  0.18867015  1
  C  C20  1  0.07184223  0.33182343  0.24253052  1
  H  H21  1  0.14841778  0.01187793  0.06984914  1
  H  H22  1  0.12211093  0.36157924  0.24462056  1
  H  H23  1  0.00661978  0.34910115  0.02484503  1
  N  N24  1  0.00035187  0.01855431  0.16588756  1
  N  N25  1  0.11571661  0.49910614  0.19437737  1
  H  H26  1  0.09603332  0.43973416  0.48395856  1
  H  H27  1  0.01267806  0.20747545  0.43188729  1
  H  H28  1  0.06177702  0.39124435  0.31010246  1
  H  H29  1  0.07372984  0.49057271  0.25983714  1
  H  H30  1  0.19999035  0.37007767  0.43581944  1
  H  H31  1  0.08806087  0.19132761  0.45887681  1
  C  C32  1  0.04245465  0.26344123  0.26420674  1
  C  C33  1  0.02040890  0.43487377  0.31773182  1
  H  H34  1  0.22548801  0.45734226  0.34735425  1
  C  C35  1  0.09062289  0.15140110  0.48818264  1
  N  N36  1  0.06329190  0.07760880  0.49575094  1
  C  C37  1  0.22445085  0.47056981  0.38326188  1
  C  C38  1  0.22948322  0.31205284  0.44338013  1
  H  H39  1  0.24643424  0.07441169  0.45280663  1
  H  H40  1  0.06439727  0.22803862  0.29361819  1
  N  N41  1  0.22330453  0.26685413  0.48046698  1
  C  C42  1  0.18094429  0.33569277  0.62653722  1
  N  N43  1  0.08091210  0.36406868  0.54282319  1
  C  C44  1  0.03555139  0.36475262  0.57751625  1
  Zn  Zn45  1  0.16116546  0.28153734  0.53319725  1
  H  H46  1  0.12957192  0.36924907  0.62652739  1
  N  N47  1  0.21192620  0.29657168  0.59216863  1
  C  C48  1  0.09780170  0.17890968  0.66284409  1
  C  C49  1  0.10309421  0.09769297  0.66569683  1
  Zn  Zn50  1  0.18796273  0.34670949  0.72828021  1
  N  N51  1  0.11947275  0.17773330  0.52813624  1
  H  H52  1  0.04974050  0.21222034  0.65488325  1
  N  N53  1  0.21805921  0.32191541  0.66514304  1
  C  C54  1  0.11844625  0.11723601  0.55803758  1
  H  H55  1  0.13943550  0.12882724  0.59168567  1
  H  H56  1  0.14300335  0.22166563  0.66758235  1
  C  C57  1  0.08141339  0.05279916  0.53688249  1
  C  C58  1  0.06866284  0.42565279  0.51650989  1
  H  H59  1  0.18852642  0.14892642  0.71024680  1
  C  C60  1  0.00791354  0.46507774  0.53389408  1
  H  H61  1  0.22594369  0.43372009  0.58452799  1
  H  H62  1  0.03539741  0.32288059  0.60859698  1
  C  C63  1  0.02584273  0.40547588  0.72882555  1
  C  C64  1  0.17933272  0.17538844  0.74460296  1
  N  N65  1  0.10677664  0.02120221  0.66130662  1
  C  C66  1  0.07273061  0.08641384  0.98190238  1
  C  C67  1  0.05777021  0.00163669  0.97629920  1
  H  H68  1  0.01660911  0.48415582  0.91326613  1
  N  N69  1  0.20434705  0.45910410  0.75289149  1
  N  N70  1  0.01235289  0.21491424  0.88753444  1
  C  C71  1  0.04462258  0.03366539  0.80973255  1
  N  N72  1  0.08405363  0.27045174  0.98940319  1
  H  H73  1  0.06032879  0.09738559  0.81035857  1
  H  H74  1  0.18780294  0.41928027  0.90801132  1
  C  C75  1  0.21042504  0.14069322  0.94389192  1
  H  H76  1  0.15320996  0.30203489  0.82858232  1
  H  H77  1  0.18548183  0.10020260  0.97005857  1
  C  C78  1  0.11808397  0.48460521  0.85699414  1
  N  N79  1  0.17049708  0.24998621  0.76111734  1
  N  N80  1  0.19122751  0.20525153  0.91931707  1
  C  C81  1  0.16857504  0.16144247  0.81732265  1
  H  H82  1  0.17927185  0.02948625  0.88852540  1
  C  C83  1  0.24370434  0.22073435  0.89009715  1
  C  C84  1  0.03903706  0.39036044  0.86299019  1
  C  C85  1  0.00072485  0.21534903  0.84233342  1
  H  H86  1  0.04128298  0.22678468  0.81676393  1
  H  H87  1  0.05413239  0.36941104  0.75322499  1
  Zn  Zn88  1  0.09608294  0.25553993  0.92203276  1
  N  N89  1  0.17809952  0.11920445  0.77976862  1
  H  H90  1  0.05812926  0.13881450  0.96045952  1
  C  C91  1  0.13814331  0.42386459  0.88984755  1
  N  N92  1  0.09072228  0.36687039  0.89070719  1
  C  C93  1  0.16073900  0.24723433  0.80534924  1
  N  N94  1  0.05577735  0.46188180  0.84310941  1
  H  H95  1  0.16441585  0.13337087  0.85132425  1
  H  H96  1  0.24449799  0.27198201  0.86693778  1
  H  H97  1  0.03746863  0.48352602  0.99606283  1
  C  C98  1  0.20406204  0.88471962  0.08344589  1
  N  N99  1  0.13985164  0.85240497  0.08624519  1
  C  C100  1  0.12952498  0.83642788  0.12996316  1
  H  H101  1  0.07784525  0.81290696  0.14127705  1
  H  H102  1  0.06611711  0.67489265  0.08198474  1
  Zn  Zn103  1  0.07298427  0.84455960  0.03355474  1
  C  C104  1  0.18585845  0.86635592  0.15598228  1
  N  N105  1  0.23172298  0.89014957  0.12557972  1
  H  H106  1  0.19146272  0.87934880  0.19309136  1
  C  C107  1  0.02496554  0.71160739  0.09612764  1
  H  H108  1  0.15397318  0.67324957  0.02626780  1
  N  N109  1  0.01466157  0.78754058  0.08411191  1
  N  N110  1  0.24427214  0.56605463  0.03274192  1
  H  H111  1  0.22127284  0.90791922  0.05004292  1
  H  H112  1  0.04232245  0.62766212  0.20129088  1
  C  C113  1  0.02884130  0.66697787  0.22929261  1
  N  N114  1  0.21345594  0.55960116  0.21292140  1
  N  N115  1  0.08482613  0.96319886  0.01165517  1
  C  C116  1  0.24180882  0.62505114  0.06450568  1
  N  N117  1  0.05514897  0.74178868  0.23084422  1
  C  C118  1  0.11546678  0.51384936  0.23885569  1
  H  H119  1  0.09173731  0.53563727  0.04890667  1
  H  H120  1  0.19272906  0.53906515  0.14307962  1
  C  C121  1  0.17498361  0.53432440  0.17878256  1
  C  C122  1  0.01879979  0.96719697  0.20029782  1
  H  H123  1  0.05619385  0.91375514  0.19657283  1
  H  H124  1  0.19875107  0.57002989  0.28384118  1
  C  C125  1  0.17845131  0.54989504  0.25115410  1
  H  H126  1  0.02984605  0.84311614  0.27531097  1
  N  N127  1  0.22499974  0.73327431  0.35842382  1
  C  C128  1  0.02617292  0.78057196  0.26562880  1
  C  C129  1  0.19267734  0.51248287  0.44952639  1
  C  C130  1  0.01883070  0.69642028  0.41851349  1
  C  C131  1  0.14190532  0.68209951  0.31900305  1
  Zn  Zn132  1  0.08419595  0.54600811  0.37929254  1
  N  N133  1  0.14250643  0.64294592  0.35902859  1
  H  H134  1  0.05114356  0.73866590  0.39844863  1
  N  N135  1  0.02913165  0.90684865  0.43718374  1
  C  C136  1  0.19468266  0.67342286  0.38324729  1
  C  C137  1  0.19557359  0.73987633  0.31683839  1
  H  H138  1  0.21252987  0.90840967  0.43739106  1
  H  H139  1  0.21648020  0.77838568  0.29063177  1
  H  H140  1  0.20685787  0.65192680  0.41744036  1
  H  H141  1  0.15627622  0.54161200  0.47263101  1
  N  N142  1  0.01891698  0.61469437  0.41689449  1
  C  C143  1  0.07883291  0.88575948  0.42053982  1
  H  H144  1  0.12095523  0.84921027  0.40608253  1
  H  H145  1  0.09921427  0.66721513  0.29344382  1
  N  N146  1  0.01490988  0.50091262  0.34361101  1
  N  N147  1  0.17137101  0.50252240  0.40656164  1
  N  N148  1  0.09870976  0.87339067  0.68954823  1
  C  C149  1  0.09481997  0.81336712  0.70883325  1
  Zn  Zn150  1  0.18207535  0.95205176  0.67893310  1
  Zn  Zn151  1  0.03158771  0.94490039  0.65222860  1
  N  N152  1  0.00468574  0.87583570  0.59404794  1
  H  H153  1  0.04286949  0.75763700  0.61707055  1
  H  H154  1  0.06297134  0.99698558  0.55394512  1
  H  H155  1  0.18592076  0.87742997  0.57701430  1
  N  N156  1  0.24757547  0.95529853  0.73213784  1
  H  H157  1  0.09544481  0.75579959  0.72839593  1
  C  C158  1  0.02280101  0.79790780  0.58961107  1
  C  C159  1  0.00047637  0.76958000  0.54652956  1
  H  H160  1  0.00758442  0.71085539  0.52856810  1
  C  C161  1  0.23782570  0.88381801  0.59032051  1
  H  H162  1  0.20912730  0.81574199  0.74401363  1
  C  C163  1  0.24578925  0.76738881  0.74669155  1
  N  N164  1  0.01483575  0.53289231  0.98181774  1
  C  C165  1  0.15884697  0.51573709  0.76139032  1
  C  C166  1  0.15814937  0.70086902  0.99339670  1
  H  H167  1  0.10490108  0.50244591  0.75131585  1
  H  H168  1  0.14687270  0.71619649  0.79889211  1
  N  N169  1  0.06619330  0.64143574  0.80346513  1
  Zn  Zn170  1  0.00551505  0.53056203  0.80118922  1
  C  C171  1  0.14958861  0.79950881  0.94470682  1
  H  H172  1  0.07041754  0.84097550  0.79012159  1
  N  N173  1  0.22433236  0.94989965  0.84098656  1
  N  N174  1  0.12827835  0.77469162  0.98495773  1
  H  H175  1  0.13798803  0.86033277  0.93095573  1
  C  C176  1  0.19188709  0.73566963  0.92668930  1
  H  H177  1  0.02952390  0.97210804  0.94958710  1
  C  C178  1  0.18100711  0.59727039  0.77552576  1
  C  C179  1  0.04571353  0.71106224  0.82400542  1
  H  H180  1  0.07419643  0.76518199  0.82196303  1
  N  N181  1  0.19764973  0.67931609  0.95847898  1
  H  H182  1  0.14006691  0.54155510  0.84585056  1
  N  N183  1  0.08636613  0.97483713  0.79361887  1
  C  C184  1  0.13216997  0.65278157  0.79202034  1
  C  C185  1  0.05287329  0.90211457  0.79654474  1
  H  H186  1  0.03634201  0.76664212  0.93643040  1
  H  H187  1  0.23465674  0.61337526  0.77393110  1
  C  C188  1  0.21613286  0.97881846  0.88215053  1
  H  H189  1  0.21921555  0.73510411  0.89308641  1
  C  C190  1  0.00239116  0.53341334  0.93660915  1
  Zn  Zn191  1  0.18483679  0.99621077  0.78114130  1
  N  N192  1  0.45516726  0.25794478  0.07335159  1
  Zn  Zn193  1  0.37830876  0.32540170  0.04144280  1
  C  C194  1  0.44334620  0.18737495  0.09298916  1
  N  N195  1  0.39111668  0.42918477  0.10435145  1
  H  H196  1  0.39276675  0.16184119  0.09506613  1
  H  H197  1  0.28927177  0.43920903  0.13659970  1
  C  C198  1  0.34358082  0.45702601  0.13528006  1
  C  C199  1  0.28430615  0.10522026  0.03106382  1
  H  H200  1  0.36633617  0.26546989  0.18896050  1
  N  N201  1  0.28061136  0.33443300  0.21035061  1
  C  C202  1  0.31353807  0.28154422  0.18265896  1
  C  C203  1  0.28751500  0.09423929  0.19831896  1
  H  H204  1  0.28538889  0.24380769  0.11050446  1
  C  C205  1  0.27309516  0.27390397  0.14329671  1
  N  N206  1  0.31909911  0.03531515  0.19652434  1
  C  C207  1  0.30369053  0.40213204  0.01265594  1
  C  C208  1  0.27055507  0.33970137  0.03219546  1
  C  C209  1  0.32258979  0.03969842  0.05134303  1
  N  N210  1  0.30006656  0.03646658  0.09342546  1
  H  H211  1  0.47980594  0.18879742  0.22514006  1
  H  H212  1  0.25270705  0.14649773  0.19508615  1
  C  C213  1  0.44594595  0.47778876  0.10817066  1
  Zn  Zn214  1  0.40516977  0.01279632  0.23228707  1
  H  H215  1  0.48670172  0.48367128  0.08256876  1
  H  H216  1  0.36216024  0.00248817  0.03640948  1
  H  H217  1  0.49614263  0.29353584  0.15625089  1
  C  C218  1  0.25182789  0.09314595  0.09880290  1
  N  N219  1  0.48398726  0.00773206  0.18824681  1
  H  H220  1  0.43750696  0.17569808  0.01513031  1
  C  C221  1  0.49945295  0.15511388  0.25334428  1
  H  H222  1  0.33031558  0.43390475  0.41079166  1
  H  H223  1  0.43587309  0.33020695  0.42828517  1
  H  H224  1  0.40995579  0.44546282  0.26794012  1
  N  N225  1  0.25867162  0.48837542  0.45353224  1
  C  C226  1  0.27914212  0.45643491  0.41459884  1
  C  C227  1  0.27545720  0.02575018  0.43802700  1
  N  N228  1  0.44117690  0.10398198  0.47423775  1
  C  C229  1  0.43378783  0.21800046  0.33785779  1
  N  N230  1  0.47707379  0.08335736  0.26579776  1
  N  N231  1  0.45641546  0.34813006  0.35567231  1
  C  C232  1  0.26504977  0.20101265  0.47658756  1
  N  N233  1  0.30373678  0.20800922  0.43786716  1
  C  C234  1  0.45376519  0.29702963  0.32101749  1
  N  N235  1  0.42167036  0.22890224  0.38199252  1
  N  N236  1  0.33777408  0.03477350  0.42032318  1
  C  C237  1  0.43472565  0.30753077  0.39311248  1
  Zn  Zn238  1  0.38333755  0.13800831  0.42027724  1
  C  C239  1  0.27999240  0.27176262  0.41584313  1
  H  H240  1  0.30456639  0.29449956  0.38523257  1
  H  H241  1  0.42577303  0.16224115  0.31875930  1
  H  H242  1  0.46652384  0.31177931  0.28674585  1
  Zn  Zn243  1  0.49251749  0.45935193  0.35448662  1
  H  H244  1  0.30629662  0.23743289  0.58048583  1
  H  H245  1  0.32111195  0.27864207  0.67279963  1
  N  N246  1  0.47202577  0.09780851  0.54636103  1
  H  H247  1  0.47594911  0.44152776  0.62075287  1
  H  H248  1  0.48989066  0.49099959  0.51144237  1
  C  C249  1  0.27747106  0.28970005  0.65137001  1
  N  N250  1  0.49093147  0.35639796  0.50739009  1
  C  C251  1  0.27223762  0.26916170  0.60456016  1
  H  H252  1  0.26673201  0.15191394  0.50285701  1
  C  C253  1  0.41857561  0.11260557  0.51671815  1
  H  H254  1  0.36883332  0.13705487  0.52891467  1
  C  C255  1  0.44283868  0.29949206  0.50561739  1
  C  C256  1  0.37926425  0.34224525  0.50612199  1
  N  N257  1  0.39247343  0.42228488  0.50579253  1
  H  H258  1  0.32824875  0.31195013  0.50614221  1
  H  H259  1  0.45506950  0.23652618  0.50381785  1
  C  C260  1  0.46035692  0.43197793  0.50878477  1
  N  N261  1  0.39589548  0.48421905  0.74358625  1
  H  H262  1  0.45394330  0.06232377  0.64993189  1
  C  C263  1  0.28329491  0.49185057  0.64534510  1
  C  C264  1  0.26665112  0.47543582  0.59873631  1
  H  H265  1  0.25208114  0.47561219  0.67641230  1
  C  C266  1  0.29600373  0.16165557  0.89788617  1
  H  H267  1  0.34818115  0.15660719  0.88356597  1
  H  H268  1  0.33390359  0.33030966  0.84880828  1
  H  H269  1  0.31379253  0.39574563  0.93888187  1
  C  C270  1  0.30335461  0.42718940  0.90504299  1
  C  C271  1  0.44528473  0.44559463  0.75079781  1
  C  C272  1  0.31809823  0.39584379  0.86083733  1
  N  N273  1  0.41249423  0.18019289  0.98470330  1
  H  H274  1  0.35200696  0.26251003  0.95895848  1
  C  C275  1  0.37814792  0.24588400  0.98891933  1
  H  H276  1  0.41870322  0.01408853  0.89712779  1
  H  H277  1  0.40005917  0.47239354  0.93972006  1
  H  H278  1  0.39560157  0.15894755  0.95271221  1
  H  H279  1  0.28515346  0.46026709  0.99954408  1
  H  H280  1  0.43990697  0.39428053  0.77565752  1
  N  N281  1  0.30245298  0.45964260  0.83521214  1
  Zn  Zn282  1  0.30261753  0.45834745  0.76743098  1
  N  N283  1  0.27323652  0.11399375  0.93025568  1
  H  H284  1  0.28110542  0.12044944  0.99509973  1
  C  C285  1  0.43483544  0.53106080  0.14522966  1
  Zn  Zn286  1  0.31703726  0.94997627  0.14620097  1
  H  H287  1  0.28925017  0.79697188  0.07990599  1
  Zn  Zn288  1  0.31700897  0.59563870  0.20681341  1
  H  H289  1  0.47006466  0.57946652  0.15454765  1
  N  N290  1  0.34803718  0.84016731  0.17031006  1
  N  N291  1  0.34814346  0.70802153  0.18869560  1
  C  C292  1  0.31340077  0.76778963  0.16734492  1
  C  C293  1  0.32232336  0.80912940  0.04994348  1
  C  C294  1  0.40640195  0.82635027  0.19288581  1
  C  C295  1  0.40457946  0.74155480  0.20622536  1
  N  N296  1  0.39070502  0.82888820  0.05235822  1
  H  H297  1  0.44515606  0.87434693  0.20030259  1
  H  H298  1  0.44083561  0.70862053  0.22697119  1
  H  H299  1  0.46721132  0.75652064  0.11143356  1
  N  N300  1  0.37015588  0.51670802  0.15864772  1
  H  H301  1  0.43182616  0.95255076  0.13370558  1
  C  C302  1  0.47875210  0.98143516  0.14540993  1
  H  H303  1  0.26145894  0.75796685  0.15383237  1
  C  C304  1  0.30535046  0.79692719  0.00407194  1
  H  H305  1  0.38814501  0.67722485  0.02496869  1
  H  H306  1  0.25139884  0.68936272  0.06394801  1
  C  C307  1  0.28195546  0.56198295  0.07043604  1
  H  H308  1  0.33769845  0.55694837  0.07765187  1
  C  C309  1  0.40971728  0.62279105  0.00821611  1
  N  N310  1  0.47491148  0.59755432  0.00976562  1
  C  C311  1  0.41334024  0.82751543  0.00914842  1
  H  H312  1  0.46732507  0.84137135  0.00336289  1
  N  N313  1  0.36056841  0.83529906  0.32746910  1
  C  C314  1  0.34529660  0.89776663  0.30010523  1
  C  C315  1  0.35886076  0.96620790  0.39835756  1
  N  N316  1  0.31217635  0.90849124  0.40742624  1
  Zn  Zn317  1  0.30767485  0.79498629  0.37926254  1
  C  C318  1  0.45369407  0.87179361  0.28744733  1
  C  C319  1  0.25918370  0.94160595  0.43037144  1
  N  N320  1  0.34356848  0.62041292  0.48027827  1
  H  H321  1  0.40187341  0.95807783  0.37660321  1
  N  N322  1  0.33898005  0.72332387  0.43312934  1
  C  C323  1  0.48170572  0.57257015  0.43868086  1
  N  N324  1  0.40216410  0.92075884  0.27604196  1
  N  N325  1  0.35901995  0.57133974  0.27231777  1
  C  C326  1  0.40819338  0.59882629  0.33908486  1
  H  H327  1  0.42872328  0.55054991  0.44569669  1
  N  N328  1  0.42587535  0.52519420  0.32529001  1
  H  H329  1  0.31592404  0.59995672  0.40868022  1
  H  H330  1  0.49371356  0.68842948  0.48245418  1
  H  H331  1  0.42771580  0.63068218  0.36922145  1
  C  C332  1  0.36130044  0.62652008  0.30482401  1
  C  C333  1  0.39497387  0.50663434  0.28478538  1
  H  H334  1  0.29334063  0.92995178  0.29850100  1
  H  H335  1  0.33341057  0.68541530  0.30315332  1
  C  C336  1  0.36376454  0.75049355  0.47178562  1
  H  H337  1  0.37095717  0.81563788  0.47807650  1
  C  C338  1  0.42725784  0.81708436  0.32116286  1
  H  H339  1  0.45479020  0.77077548  0.33930388  1
  C  C340  1  0.33398607  0.64065267  0.43680912  1
  C  C341  1  0.47758450  0.90063625  0.49413810  1
  H  H342  1  0.43931678  0.94927881  0.49164667  1
  N  N343  1  0.35322243  0.88541445  0.60131026  1
  C  C344  1  0.31831045  0.92476298  0.63600974  1
  Zn  Zn345  1  0.45832416  0.86888832  0.59521079  1
  H  H346  1  0.34329095  0.94722938  0.66722189  1
  H  H347  1  0.37532987  0.76586322  0.66599882  1
  C  C348  1  0.42240192  0.73212425  0.65810793  1
  N  N349  1  0.44446268  0.65743215  0.67026584  1
  N  N350  1  0.47127347  0.76633732  0.63177514  1
  Zn  Zn351  1  0.38553902  0.57614479  0.70397625  1
  H  H352  1  0.37718091  0.68195670  0.53983335  1
  H  H353  1  0.40289291  0.58628328  0.58922048  1
  N  N354  1  0.34179120  0.53341994  0.64623953  1
  C  C355  1  0.35928496  0.54905314  0.60240006  1
  C  C356  1  0.30247601  0.86483083  0.57236025  1
  H  H357  1  0.30817714  0.83235284  0.53978197  1
  N  N358  1  0.31590861  0.51208237  0.57401276  1
  N  N359  1  0.32508368  0.67051358  0.73395507  1
  C  C360  1  0.27463395  0.71303993  0.71516748  1
  N  N361  1  0.25142545  0.91810341  0.63100811  1
  N  N362  1  0.49772528  0.86052258  0.53076620  1
  H  H363  1  0.48717588  0.68698115  0.73806782  1
  H  H364  1  0.26094371  0.69118297  0.67993190  1
  Zn  Zn365  1  0.32504359  0.51355486  0.50635699  1
  C  C366  1  0.30374811  0.93685976  0.73603955  1
  H  H367  1  0.35658849  0.91743508  0.74494053  1
  C  C368  1  0.36659967  0.68383821  0.50398321  1
  N  N369  1  0.46119837  0.89556352  0.91339712  1
  H  H370  1  0.25545071  0.78283836  0.98797512  1
  C  C371  1  0.48113369  0.53248636  0.98372539  1
  N  N372  1  0.36252172  0.81419926  0.97983966  1
  Zn  Zn373  1  0.37163120  0.82603237  0.91165055  1
  N  N374  1  0.40921645  0.72770050  0.87918347  1
  C  C375  1  0.27526585  0.89317676  0.84184678  1
  N  N376  1  0.48668702  0.64293224  0.85173886  1
  C  C377  1  0.26222810  0.93779840  0.91312677  1
  C  C378  1  0.41547258  0.51591325  0.96535010  1
  N  N379  1  0.28199946  0.50463759  0.90360579  1
  N  N380  1  0.28211407  0.76168933  0.78434305  1
  H  H381  1  0.36733574  0.67078299  0.80002746  1
  Zn  Zn382  1  0.27095484  0.58384447  0.96086180  1
  H  H383  1  0.34115617  0.63824163  0.90596133  1
  C  C384  1  0.46430656  0.97447352  0.90472651  1
  C  C385  1  0.38821332  0.65161442  0.88472978  1
  H  H386  1  0.43125136  0.52988969  0.86143341  1
  C  C387  1  0.33074357  0.70127318  0.77709026  1
  H  H388  1  0.27066398  0.58375603  0.84173604  1
  C  C389  1  0.28442779  0.52559560  0.85912568  1
  C  C390  1  0.43603026  0.59558521  0.86480936  1
  N  N391  1  0.37361864  0.57348603  0.98054048  1
  H  H392  1  0.29543067  0.85205545  0.81272811  1
  C  C393  1  0.47166689  0.72216750  0.85902382  1
  N  N394  1  0.29861794  0.89226960  0.88487841  1
  H  H395  1  0.26758789  0.94187956  0.94799473  1
  Zn  Zn396  1  0.64398581  0.23294450  0.14151936  1
  N  N397  1  0.59493938  0.31306164  0.18542880  1
  Zn  Zn398  1  0.68651094  0.32028208  0.04338136  1
  N  N399  1  0.68882412  0.15749023  0.18366406  1
  C  C400  1  0.52645186  0.32307497  0.18324537  1
  N  N401  1  0.63961197  0.42079156  0.06509031  1
  N  N402  1  0.54933976  0.22641693  0.10936343  1
  H  H403  1  0.65738816  0.41089495  0.13433285  1
  C  C404  1  0.63204151  0.44470032  0.10759360  1
  C  C405  1  0.63659858  0.11655276  0.05126685  1
  Zn  Zn406  1  0.67968020  0.06279569  0.14298604  1
  N  N407  1  0.66819367  0.05921802  0.07516940  1
  C  C408  1  0.71561927  0.16638313  0.21796570  1
  C  C409  1  0.61810870  0.34924796  0.22206250  1
  N  N410  1  0.72517366  0.25344614  0.09413841  1
  H  H411  1  0.66990370  0.33529432  0.23072883  1
  H  H412  1  0.54527507  0.33776725  0.06845367  1
  N  N413  1  0.50597688  0.36980677  0.21855173  1
  C  C414  1  0.61170845  0.47922094  0.03850958  1
  H  H415  1  0.61718949  0.17085226  0.06513186  1
  C  C416  1  0.52094528  0.27983776  0.08061569  1
  H  H417  1  0.51732563  0.11607698  0.14036931  1
  C  C418  1  0.50379268  0.16812774  0.11797825  1
  H  H419  1  0.56922647  0.05858685  0.22795047  1
  C  C420  1  0.54980308  0.03121024  0.19551479  1
  N  N421  1  0.58565444  0.02221289  0.15708789  1
  C  C422  1  0.56175228  0.39070016  0.24233239  1
  H  H423  1  0.53254284  0.30821696  0.00374763  1
  N  N424  1  0.65993546  0.01595616  0.00378542  1
  H  H425  1  0.61235058  0.47145669  0.00069235  1
  C  C426  1  0.62851170  0.08694941  0.00647306  1
  H  H427  1  0.66271826  0.48959783  0.44712742  1
  C  C428  1  0.72677131  0.02201575  0.28644681  1
  C  C429  1  0.68183150  0.31914321  0.42030894  1
  H  H430  1  0.58128394  0.23935134  0.28498547  1
  N  N431  1  0.72468529  0.07850762  0.31774521  1
  N  N432  1  0.64583032  0.21090803  0.38669294  1
  C  C433  1  0.70004487  0.06219568  0.44507171  1
  H  H434  1  0.72991236  0.27185052  0.35526461  1
  N  N435  1  0.68489161  0.01174756  0.48037093  1
  H  H436  1  0.67941999  0.18063639  0.48742629  1
  C  C437  1  0.50670336  0.07808040  0.47517031  1
  N  N438  1  0.56182337  0.11452343  0.31051404  1
  C  C439  1  0.59978314  0.22992144  0.42002653  1
  H  H440  1  0.54124220  0.06526622  0.44675925  1
  H  H441  1  0.55218212  0.19368721  0.42965670  1
  Zn  Zn442  1  0.64162585  0.10929889  0.35227855  1
  N  N443  1  0.58318148  0.49485908  0.32747988  1
  H  H444  1  0.65935464  0.41507904  0.35369151  1
  N  N445  1  0.66098253  0.04238286  0.40943023  1
  H  H446  1  0.55677388  0.42958976  0.27423700  1
  C  C447  1  0.51463269  0.05674029  0.30132106  1
  C  C448  1  0.55116608  0.18007934  0.28575014  1
  H  H449  1  0.73321962  0.11584234  0.44807303  1
  N  N450  1  0.62627483  0.29438093  0.44175911  1
  C  C451  1  0.64531433  0.46270056  0.33114727  1
  C  C452  1  0.69077087  0.26771865  0.38042921  1
  H  H453  1  0.71281338  0.37182077  0.43302931  1
  H  H454  1  0.74049672  0.18398891  0.25122329  1
  C  C455  1  0.59944351  0.22726332  0.58181026  1
  N  N456  1  0.66917969  0.13039674  0.55620021  1
  C  C457  1  0.63433966  0.15050989  0.59196980  1
  N  N458  1  0.61715878  0.24384411  0.54032928  1
  Zn  Zn459  1  0.72559041  0.02332081  0.54444235  1
  H  H460  1  0.63078734  0.10818701  0.62145073  1
  C  C461  1  0.65791465  0.18491660  0.52259205  1
  H  H462  1  0.56891811  0.26339325  0.60453431  1
  H  H463  1  0.55121090  0.28579085  0.68221147  1
  C  C464  1  0.53780050  0.35065133  0.67881010  1
  H  H465  1  0.71400942  0.23946336  0.58843023  1
  N  N466  1  0.62222221  0.45185123  0.51355735  1
  H  H467  1  0.57416039  0.05357808  0.53824156  1
  H  H468  1  0.60059954  0.45357711  0.58622112  1
  N  N469  1  0.51297425  0.35540258  0.63894625  1
  Zn  Zn470  1  0.53934815  0.46241511  0.71689301  1
  C  C471  1  0.62235964  0.48333021  0.55587465  1
  C  C472  1  0.52476217  0.07353899  0.52130062  1
  C  C473  1  0.50243156  0.02843343  0.64912626  1
  H  H474  1  0.72102868  0.02795048  0.65470867  1
  H  H475  1  0.73947140  0.26408338  0.72597507  1
  C  C476  1  0.50071930  0.42812063  0.65391663  1
  Zn  Zn477  1  0.59024562  0.33955997  0.50168702  1
  N  N478  1  0.63404143  0.49780434  0.93606235  1
  H  H479  1  0.74368274  0.48051643  0.98473226  1
  N  N480  1  0.63704955  0.26813644  0.99220939  1
  C  C481  1  0.55831607  0.23427766  0.94133526  1
  C  C482  1  0.72902727  0.10677869  0.79427723  1
  H  H483  1  0.60172000  0.11573776  0.97793155  1
  H  H484  1  0.50616468  0.22814657  0.92544353  1
  H  H485  1  0.72035246  0.22068599  0.95183863  1
  C  C486  1  0.67115633  0.44954996  0.90765266  1
  H  H487  1  0.67343916  0.45102727  0.83057762  1
  C  C488  1  0.53372655  0.00058019  0.91207202  1
  H  H489  1  0.55791611  0.06412174  0.90922693  1
  H  H490  1  0.64115300  0.01808278  0.80202049  1
  C  C491  1  0.56909723  0.27255159  0.98260224  1
  H  H492  1  0.69956192  0.39882908  0.92241861  1
  C  C493  1  0.65752926  0.47543095  0.86286396  1
  N  N494  1  0.61884126  0.20639710  0.92579870  1
  H  H495  1  0.72312515  0.15396325  0.82162277  1
  C  C496  1  0.66646404  0.22958077  0.95721313  1
  C  C497  1  0.68769231  0.03555396  0.78695231  1
  Zn  Zn498  1  0.55641280  0.64250549  0.04504957  1
  N  N499  1  0.57010718  0.72992755  0.09063059  1
  H  H500  1  0.70270979  0.86906244  0.14828950  1
  C  C501  1  0.55753716  0.82627814  0.14125717  1
  N  N502  1  0.62325849  0.82293522  0.13266701  1
  C  C503  1  0.63172991  0.76259101  0.10023621  1
  H  H504  1  0.68078658  0.74889047  0.08297274  1
  N  N505  1  0.59190736  0.54518972  0.06456704  1
  N  N506  1  0.53575511  0.66405136  0.22856116  1
  C  C507  1  0.54425139  0.65427252  0.18582072  1
  H  H508  1  0.55452787  0.72253670  0.18495131  1
  C  C509  1  0.52256616  0.76815984  0.11461165  1
  H  H510  1  0.54080918  0.87344055  0.16763196  1
  H  H511  1  0.71138388  0.94005389  0.05594200  1
  C  C512  1  0.52502835  0.59291285  0.21450460  1
  H  H513  1  0.59042725  0.56557309  0.13492458  1
  H  H514  1  0.70935726  0.53316847  0.06534821  1
  C  C515  1  0.74408116  0.58217026  0.07506565  1
  C  C516  1  0.60550741  0.52601960  0.10798876  1
  C  C517  1  0.74681140  0.62933394  0.11416000  1
  H  H518  1  0.57536293  0.84350164  0.01783007  1
  C  C519  1  0.68529998  0.99873577  0.04617599  1
  H  H520  1  0.55849522  0.98574935  0.08940751  1
  H  H521  1  0.51780232  0.52629777  0.21542365  1
  C  C522  1  0.54426475  0.98872603  0.12557063  1
  H  H523  1  0.71574552  0.62409801  0.14443126  1
  C  C524  1  0.74841098  0.90335571  0.15774393  1
  N  N525  1  0.61017779  0.71520265  0.00124966  1
  C  C526  1  0.51422296  0.64381893  0.45533136  1
  H  H527  1  0.50587212  0.88330292  0.27187207  1
  N  N528  1  0.51564755  0.54365935  0.40251547  1
  N  N529  1  0.57039247  0.65248619  0.43057315  1
  H  H530  1  0.57999481  0.95756802  0.39897590  1
  C  C531  1  0.65228151  0.50327580  0.48503764  1
  H  H532  1  0.62291744  0.90914144  0.48925873  1
  N  N533  1  0.68686082  0.50209286  0.30155281  1
  C  C534  1  0.62287189  0.97916266  0.42082449  1
  H  H535  1  0.56703433  0.69681813  0.33932486  1
  C  C536  1  0.51685731  0.86825119  0.45785492  1
  Zn  Zn537  1  0.63120950  0.74732313  0.43517397  1
  C  C538  1  0.57811048  0.55092793  0.29510467  1
  H  H539  1  0.61574726  0.58885950  0.37289141  1
  H  H540  1  0.71570070  0.87350023  0.37559268  1
  C  C541  1  0.62776501  0.78752763  0.29381345  1
  H  H542  1  0.53416929  0.58479922  0.28296893  1
  C  C543  1  0.64033302  0.95795413  0.46689347  1
  N  N544  1  0.67454953  0.84202829  0.30687069  1
  C  C545  1  0.64686829  0.55366822  0.27825389  1
  H  H546  1  0.68620758  0.98090963  0.27766902  1
  H  H547  1  0.61885818  0.78208965  0.25732288  1
  N  N548  1  0.56125995  0.81387794  0.47445005  1
  N  N549  1  0.63876875  0.77760070  0.36785137  1
  H  H550  1  0.66954758  0.60048763  0.25530390  1
  C  C551  1  0.67848373  0.83664160  0.35306015  1
  H  H552  1  0.71264898  0.62478351  0.37581909  1
  C  C553  1  0.57407063  0.58938120  0.40069895  1
  N  N554  1  0.72014222  0.77009828  0.46764581  1
  C  C555  1  0.60241305  0.74742666  0.33295897  1
  C  C556  1  0.74720678  0.83184720  0.46955544  1
  H  H557  1  0.52257705  0.88309927  0.42127891  1
  Zn  Zn558  1  0.73804828  0.65767111  0.48571211  1
  H  H559  1  0.51326363  0.99651525  0.31806070  1
  C  C560  1  0.55150218  0.81039215  0.51903978  1
  N  N561  1  0.71347191  0.89567845  0.66657371  1
  H  H562  1  0.56886568  0.73141332  0.60931647  1
  N  N563  1  0.72107210  0.94617987  0.59616174  1
  H  H564  1  0.57653646  0.76548027  0.53900744  1
  Zn  Zn565  1  0.69719555  0.89095852  0.73050640  1
  H  H566  1  0.55714991  0.82686626  0.69866533  1
  C  C567  1  0.65967514  0.55829068  0.55304011  1
  C  C568  1  0.71893330  0.96423086  0.64190172  1
  H  H569  1  0.67069871  0.60727054  0.57986387  1
  C  C570  1  0.71720363  0.86634854  0.59257772  1
  C  C571  1  0.71504508  0.83252191  0.63729579  1
  C  C572  1  0.57038551  0.78801486  0.72888145  1
  N  N573  1  0.67698544  0.56608211  0.51029346  1
  C  C574  1  0.52499844  0.71611939  0.63046331  1
  H  H575  1  0.53191926  0.58728894  0.66194993  1
  N  N576  1  0.52214180  0.95687288  0.63368651  1
  C  C577  1  0.53661693  0.71773785  0.74809414  1
  C  C578  1  0.50720110  0.64449821  0.65480242  1
  C  C579  1  0.53072680  0.97534760  0.67671711  1
  H  H580  1  0.71324893  0.83496261  0.55887182  1
  H  H581  1  0.71096862  0.77012375  0.64975082  1
  H  H582  1  0.51207158  0.94677839  0.70778415  1
  H  H583  1  0.74000204  0.56951308  0.89731988  1
  N  N584  1  0.62813691  0.80496868  0.75096181  1
  N  N585  1  0.74054750  0.97756573  0.91930364  1
  C  C586  1  0.60960133  0.79895659  0.99939692  1
  H  H587  1  0.50633054  0.77556891  0.85334290  1
  Zn  Zn588  1  0.65918906  0.93890416  0.94920412  1
  H  H589  1  0.53266307  0.50107649  0.97916918  1
  Zn  Zn590  1  0.56874708  0.59588883  0.81462288  1
  C  C591  1  0.52658834  0.86995913  0.92160422  1
  H  H592  1  0.54011117  0.80735985  0.93026306  1
  H  H593  1  0.66479073  0.62600493  0.96353581  1
  N  N594  1  0.65174176  0.82480029  0.96609865  1
  H  H595  1  0.72408305  0.60217421  0.80763263  1
  N  N596  1  0.61108169  0.53526330  0.86599876  1
  N  N597  1  0.57952396  0.69556063  0.78141251  1
  C  C598  1  0.63207432  0.74859683  0.78462630  1
  C  C599  1  0.67980184  0.76068159  0.94650871  1
  N  N600  1  0.56914994  0.93461556  0.92307636  1
  H  H601  1  0.72091666  0.76713967  0.92038087  1
  H  H602  1  0.56023305  0.59261410  0.92318390  1
  N  N603  1  0.60848680  0.52140676  0.76529094  1
  C  C604  1  0.65269323  0.69065116  0.96904088  1
  C  C605  1  0.59651409  0.54723318  0.90954127  1
  H  H606  1  0.67891683  0.74191441  0.80615318  1
  C  C607  1  0.73254506  0.55076084  0.78413885  1
  H  H608  1  0.73340283  0.93980174  0.85094800  1
  C  C609  1  0.67295662  0.51264676  0.76245242  1
  N  N610  1  0.72352646  0.99839711  0.75563786  1
  N  N611  1  0.94587891  0.45343892  0.14788008  1
  H  H612  1  0.93465224  0.29414039  0.18186063  1
  H  H613  1  0.83522128  0.07174939  0.16527609  1
  H  H614  1  0.82892336  0.20487458  0.09777604  1
  H  H615  1  0.81621985  0.24448811  0.18863095  1
  C  C616  1  0.81233219  0.27736142  0.22146416  1
  C  C617  1  0.91615480  0.10149195  0.04043309  1
  H  H618  1  0.76797666  0.40314653  0.20572134  1
  C  C619  1  0.77872838  0.22606963  0.09723039  1
  C  C620  1  0.97613661  0.29818940  0.20903632  1
  C  C621  1  0.78387378  0.35496712  0.22981766  1
  N  N622  1  0.88457927  0.06301777  0.00713758  1
  N  N623  1  0.77988564  0.37063577  0.01677495  1
  H  H624  1  0.85591474  0.28002999  0.04203499  1
  C  C625  1  0.89413288  0.44086085  0.17676253  1
  H  H626  1  0.89984336  0.41709835  0.21147581  1
  N  N627  1  0.83246985  0.44670368  0.15580504  1
  C  C628  1  0.85528375  0.05864315  0.04725538  1
  H  H629  1  0.97101915  0.10077236  0.05215670  1
  N  N630  1  0.94751363  0.06329481  0.22794387  1
  H  H631  1  0.79947546  0.06907233  0.04727348  1
  N  N632  1  0.98296252  0.24563874  0.24408905  1
  C  C633  1  0.81686530  0.00747105  0.16230611  1
  C  C634  1  0.84080697  0.33639677  0.02326556  1
  H  H635  1  0.80637059  0.47719490  0.08746609  1
  H  H636  1  0.94503393  0.13245886  0.16187985  1
  C  C637  1  0.96074867  0.07672562  0.18352326  1
  C  C638  1  0.91697841  0.46732800  0.10679667  1
  H  H639  1  0.94575441  0.46964031  0.07372191  1
  C  C640  1  0.84642432  0.46235243  0.11166534  1
  N  N641  1  0.88896932  0.38629057  0.00436373  1
  N  N642  1  0.98288658  0.09139204  0.39940106  1
  C  C643  1  0.98159708  0.20464386  0.35800903  1
  Zn  Zn644  1  0.79535143  0.49321182  0.29878072  1
  C  C645  1  0.82262988  0.48362295  0.39884132  1
  H  H646  1  0.85920961  0.43027918  0.39099901  1
  N  N647  1  0.82675673  0.09231187  0.28587698  1
  N  N648  1  0.84158646  0.25300859  0.25963128  1
  C  C649  1  0.95787526  0.07539992  0.35792816  1
  Zn  Zn650  1  0.99617082  0.01272250  0.45227523  1
  C  C651  1  0.95215330  0.42736485  0.29944739  1
  H  H652  1  0.94293040  0.00988381  0.34915243  1
  H  H653  1  0.86122661  0.32210159  0.32455334  1
  H  H654  1  0.97868571  0.26995876  0.34475742  1
  C  C655  1  0.78443033  0.12191635  0.31808630  1
  N  N656  1  0.80046128  0.37783111  0.27216095  1
  N  N657  1  0.90758694  0.48239781  0.31423789  1
  H  H658  1  0.93645874  0.37588946  0.27746943  1
  Zn  Zn659  1  0.91585533  0.15549142  0.26848417  1
  C  C660  1  0.99488713  0.17179484  0.40204878  1
  C  C661  1  0.79550434  0.03027752  0.26685117  1
  C  C662  1  0.83442183  0.31494263  0.29021961  1
  N  N663  1  0.95522581  0.14637199  0.33322863  1
  H  H664  1  0.78987048  0.17708515  0.33904673  1
  N  N665  1  0.84169227  0.36470524  0.61339157  1
  C  C666  1  0.84323753  0.30929666  0.64625619  1
  N  N667  1  0.82330624  0.03999841  0.53356455  1
  N  N668  1  0.95944631  0.44949013  0.67264225  1
  C  C669  1  0.96131021  0.06051222  0.71500397  1
  C  C670  1  0.85812729  0.09935335  0.55412148  1
  H  H671  1  0.84080836  0.13729358  0.58291847  1
  C  C672  1  0.78858664  0.34878249  0.58564487  1
  H  H673  1  0.87651856  0.30498168  0.67542828  1
  Zn  Zn674  1  0.91378833  0.45574237  0.61006899  1
  N  N675  1  0.79251417  0.25239338  0.63779781  1
  N  N676  1  0.90907464  0.11406361  0.72128981  1
  C  C677  1  0.92354868  0.09593819  0.53275255  1
  C  C678  1  0.87502626  0.11841915  0.68200381  1
  N  N679  1  0.96133353  0.02902861  0.67269752  1
  C  C680  1  0.90708042  0.06479649  0.65111695  1
  H  H681  1  0.82922018  0.15482284  0.67553548  1
  H  H682  1  0.97332133  0.13355473  0.53541567  1
  H  H683  1  0.89544742  0.04951920  0.61627562  1
  H  H684  1  0.82096106  0.01940672  0.71678138  1
  C  C685  1  0.75836506  0.27640537  0.60175492  1
  H  H686  1  0.77581425  0.38907799  0.55665366  1
  C  C687  1  0.99196306  0.38499637  0.68651216  1
  C  C688  1  0.78052665  0.03853922  0.74227986  1
  N  N689  1  0.98985547  0.42547237  0.57076008  1
  H  H690  1  0.99861186  0.32638301  0.66720942  1
  N  N691  1  0.99579335  0.47356477  0.74076635  1
  C  C692  1  0.76998424  0.32051720  0.73337198  1
  Zn  Zn693  1  0.75895317  0.44471581  0.72292638  1
  H  H694  1  0.99610559  0.03851635  0.74082913  1
  N  N695  1  0.92235768  0.03821806  0.50077560  1
  C  C696  1  0.78679318  0.44062103  0.99554711  1
  H  H697  1  0.94148718  0.01496568  0.84418669  1
  C  C698  1  0.85815840  0.45019763  0.98739149  1
  C  C699  1  0.78715782  0.02225706  0.94221579  1
  H  H700  1  0.88971130  0.07513940  0.91799033  1
  C  C701  1  0.90192181  0.19586157  0.87392566  1
  H  H702  1  0.78066382  0.04238488  0.97821186  1
  H  H703  1  0.84496150  0.19044099  0.87825244  1
  H  H704  1  0.94679228  0.20392706  0.94685759  1
  C  C705  1  0.83697538  0.37240906  0.75086162  1
  C  C706  1  0.84105155  0.04178579  0.91091506  1
  N  N707  1  0.78558441  0.10158925  0.77059767  1
  H  H708  1  0.88660896  0.39290114  0.76709763  1
  H  H709  1  0.99345712  0.35055493  0.85881822  1
  Zn  Zn710  1  0.87900515  0.18232522  0.77695398  1
  C  C711  1  0.95354501  0.20279672  0.90871583  1
  N  N712  1  0.82761457  0.29515442  0.75180406  1
  N  N713  1  0.93319979  0.19977904  0.83428730  1
  H  H714  1  0.88814026  0.49458170  0.96823747  1
  N  N715  1  0.82408726  0.01097241  0.87058364  1
  Zn  Zn716  1  0.84216028  0.76038463  0.15626546  1
  N  N717  1  0.92935668  0.75212220  0.12946301  1
  N  N718  1  0.81211594  0.87298545  0.16395269  1
  N  N719  1  0.82437749  0.69433812  0.21348795  1
  H  H720  1  0.91298305  0.92430809  0.17038220  1
  C  C721  1  0.85715782  0.93304013  0.16788873  1
  C  C722  1  0.95658603  0.81425614  0.10547579  1
  H  H723  1  0.93417902  0.87576957  0.09802027  1
  C  C724  1  0.82312060  0.61374384  0.22021848  1
  N  N725  1  0.80023175  0.68307633  0.10936845  1
  H  H726  1  0.83617932  0.56638980  0.19360950  1
  C  C727  1  0.82447199  0.67182474  0.06722310  1
  H  H728  1  0.86952680  0.70264744  0.05741089  1
  H  H729  1  0.93093981  0.94216622  0.01752954  1
  N  N730  1  0.75327709  0.98692707  0.15462506  1
  H  H731  1  0.95402312  0.62396799  0.13716730  1
  C  C732  1  0.96899244  0.68597641  0.12458697  1
  H  H733  1  0.97294652  0.59561615  0.03700945  1
  C  C734  1  0.98051461  0.59456433  0.00130424  1
  C  C735  1  0.98065196  0.99230066  0.23776125  1
  N  N736  1  0.79147355  0.60822750  0.04761407  1
  H  H737  1  0.81499474  0.99684834  0.23735567  1
  H  H738  1  0.85655417  0.97973112  0.40758052  1
  N  N739  1  0.76858712  0.58196573  0.43509800  1
  H  H740  1  0.82250699  0.80025925  0.25607206  1
  C  C741  1  0.81547973  0.73152153  0.25296707  1
  H  H742  1  0.93559301  0.60801656  0.26625693  1
  C  C743  1  0.84840987  0.91924314  0.39344431  1
  C  C744  1  0.80580344  0.66772834  0.28625183  1
  C  C745  1  0.97752648  0.65929924  0.26226193  1
  H  H746  1  0.79157967  0.66981097  0.32349136  1
  N  N747  1  0.96411404  0.72007343  0.44490215  1
  H  H748  1  0.77295288  0.89001355  0.47070380  1
  N  N749  1  0.98054853  0.72892158  0.28514325  1
  H  H750  1  0.88374749  0.65892766  0.47999857  1
  H  H751  1  0.98373770  0.97497039  0.27413342  1
  H  H752  1  0.95196392  0.75708392  0.30938277  1
  N  N753  1  0.80971426  0.59786228  0.26416636  1
  H  H754  1  0.87503938  0.72358431  0.38375785  1
  C  C755  1  0.96359839  0.58765512  0.43737302  1
  H  H756  1  0.94582391  0.52490534  0.43904401  1
  N  N757  1  0.87430533  0.85066416  0.41034163  1
  C  C758  1  0.93046879  0.65569546  0.45888939  1
  H  H759  1  0.84565357  0.94845009  0.48117472  1
  N  N760  1  0.82993631  0.81824940  0.34457959  1
  C  C761  1  0.81046578  0.51964446  0.44314199  1
  N  N762  1  0.78937364  0.52703059  0.36895014  1
  C  C763  1  0.86013695  0.78795981  0.38289994  1
  H  H764  1  0.92329768  0.57962901  0.35973886  1
  C  C765  1  0.94922811  0.52919302  0.34176939  1
  C  C766  1  0.82229436  0.89772711  0.35098474  1
  H  H767  1  0.79294672  0.93146659  0.32532812  1
  C  C768  1  0.75101301  0.58256780  0.39164438  1
  Zn  Zn769  1  0.94733200  0.83481616  0.46075204  1
  H  H770  1  0.83504037  0.50378134  0.47624305  1
  C  C771  1  0.85367435  0.67548684  0.55480514  1
  N  N772  1  0.80793556  0.62606829  0.53451455  1
  C  C773  1  0.89640840  0.62925845  0.58404593  1
  C  C774  1  0.82020635  0.54991359  0.55090804  1
  N  N775  1  0.87367321  0.55434448  0.58008934  1
  H  H776  1  0.85419859  0.74209268  0.54908687  1
  H  H777  1  0.93613598  0.64646894  0.60658199  1
  H  H778  1  0.93079794  0.56439338  0.70453615  1
  C  C779  1  0.97005271  0.89856622  0.55782999  1
  H  H780  1  0.94759424  0.96013539  0.55361969  1
  N  N781  1  0.97023179  0.83449991  0.52833445  1
  H  H782  1  0.97718935  0.51645239  0.51942273  1
  H  H783  1  0.76896789  0.72698916  0.72795655  1
  H  H784  1  0.78988831  0.50153766  0.53926096  1
  C  C785  1  0.96018288  0.50634738  0.70547032  1
  C  C786  1  0.86220624  0.99868741  0.50338152  1
  C  C787  1  0.99538807  0.80899272  0.94714358  1
  C  C788  1  0.81287350  0.87097237  0.79702524  1
  C  C789  1  0.76253716  0.97213927  0.87699600  1
  N  N790  1  0.90942787  0.56285989  0.81269938  1
  H  H791  1  0.92024977  0.69501461  0.96580875  1
  N  N792  1  0.85669894  0.81432221  0.81068736  1
  C  C793  1  0.90455994  0.88413178  0.94763942  1
  H  H794  1  0.88116658  0.69153531  0.78872262  1
  C  C795  1  0.76705877  0.62987354  0.90184217  1
  C  C796  1  0.80138682  0.66877885  0.93374592  1
  N  N797  1  0.98442663  0.71982123  0.84246031  1
  N  N798  1  0.94235496  0.83592690  0.92035981  1
  C  C799  1  0.93863292  0.89607970  0.98936849  1
  N  N800  1  0.96526919  0.59902175  0.92574391  1
  C  C801  1  0.84570518  0.74530485  0.78717034  1
  N  N802  1  0.76970433  0.83769043  0.76585957  1
  C  C803  1  0.95311010  0.63889607  0.96528129  1
  C  C804  1  0.80031653  0.52429577  0.77433891  1
  N  N805  1  0.99234060  0.84768534  0.98701684  1
  N  N806  1  0.99547107  0.91183971  0.82097387  1
  C  C807  1  0.78812691  0.76123092  0.75796102  1
  C  C808  1  0.86022699  0.54311497  0.79342783  1
  C  C809  1  0.98730931  0.99102602  0.82796121  1
  H  H810  1  0.85886745  0.92232055  0.93505397  1
  Zn  Zn811  1  0.93704704  0.82369163  0.84995915  1
  H  H812  1  0.81666806  0.65815059  0.96834416  1
  Zn  Zn813  1  0.92364849  0.63130898  0.86564862  1
  H  H814  1  0.80789572  0.93764310  0.80594192  1
  N  N815  1  0.82575891  0.66731589  0.89087653  1
