# generated using pymatgen
data_Cu2H8C17O8
_symmetry_space_group_name_H-M   'P 1'
_cell_length_a   23.16721350
_cell_length_b   21.31031621
_cell_length_c   25.27907609
_cell_angle_alpha   90.00000000
_cell_angle_beta   90.00000000
_cell_angle_gamma   90.00000000
_symmetry_Int_Tables_number   1
_chemical_formula_structural   Cu2H8C17O8
_chemical_formula_sum   'Cu48 H192 C408 O192'
_cell_volume   12480.29617974
_cell_formula_units_Z   24
loop_
 _symmetry_equiv_pos_site_id
 _symmetry_equiv_pos_as_xyz
  1  'x, y, z'
loop_
 _atom_site_type_symbol
 _atom_site_label
 _atom_site_symmetry_multiplicity
 _atom_site_fract_x
 _atom_site_fract_y
 _atom_site_fract_z
 _atom_site_occupancy
  C  C0  1  0.27284042  0.19855523  0.16748167  1
  O  O1  1  0.08623372  0.09636101  0.14002720  1
  O  O2  1  0.19186348  0.43470648  0.24220860  1
  C  C3  1  0.27188909  0.20142861  0.07104553  1
  O  O4  1  0.47964154  0.24240004  0.09517083  1
  C  C5  1  0.02857497  0.24671185  0.02062609  1
  H  H6  1  0.06491603  0.31787130  0.17571163  1
  C  C7  1  0.15058693  0.31488415  0.13936227  1
  C  C8  1  0.05789996  0.19056412  0.03090580  1
  H  H9  1  0.26084813  0.14861355  0.18066567  1
  C  C10  1  0.36571704  0.21539980  0.10756674  1
  H  H11  1  0.22663186  0.19388907  0.07543734  1
  C  C12  1  0.02797475  0.20114179  0.12262274  1
  C  C13  1  0.17020649  0.20788134  0.19925840  1
  O  O14  1  0.47060652  0.23934031  0.00874869  1
  C  C15  1  0.05776811  0.17023112  0.08299650  1
  C  C16  1  0.09122556  0.10894390  0.09509949  1
  H  H17  1  0.39167775  0.21870275  0.14415661  1
  H  H18  1  0.24261019  0.29833360  0.10939435  1
  C  C19  1  0.20576909  0.28614650  0.13682243  1
  C  C20  1  0.11886655  0.24091213  0.20243110  1
  C  C21  1  0.44829709  0.23622427  0.05291267  1
  C  C22  1  0.30672730  0.20067305  0.11497235  1
  C  C23  1  0.13538756  0.37507721  0.10954362  1
  C  C24  1  0.38627203  0.22163956  0.05573149  1
  O  O25  1  0.47087968  0.35025391  0.15588978  1
  O  O26  1  0.11976432  0.07665230  0.06021150  1
  C  C27  1  0.21391122  0.23239941  0.16725289  1
  H  H28  1  0.29826982  0.21806654  0.20275511  1
  O  O29  1  0.16907548  0.38942662  0.07604408  1
  O  O30  1  0.08931206  0.40935018  0.11821290  1
  C  C31  1  0.10672776  0.29527368  0.17307471  1
  H  H32  1  0.03228575  0.18649853  0.16445972  1
  H  H33  1  0.17804683  0.16773672  0.22160572  1
  C  C34  1  0.29298150  0.21021467  0.01958482  1
  Cu  Cu35  1  0.42503577  0.47892021  0.10470685  1
  C  C36  1  0.35267004  0.22052670  0.01027547  1
  O  O37  1  0.48075889  0.45401394  0.15176520  1
  C  C38  1  0.48612444  0.40148299  0.17535357  1
  H  H39  1  0.08265709  0.16427483  0.00108092  1
  C  C40  1  0.07612240  0.21735046  0.24193537  1
  Cu  Cu41  1  0.08837235  0.48660922  0.15189965  1
  C  C42  1  0.18353898  0.49284296  0.23135354  1
  O  O43  1  0.36328698  0.48940044  0.05975572  1
  O  O44  1  0.19584186  0.31280013  0.31467583  1
  C  C45  1  0.23268951  0.19254474  0.31691446  1
  C  C46  1  0.33257343  0.23126445  0.33299030  1
  C  C47  1  0.25427292  0.13232902  0.32238420  1
  Cu  Cu48  1  0.15288681  0.37777852  0.28159335  1
  Cu  Cu49  1  0.09800265  0.13771844  0.32859174  1
  H  H50  1  0.29004008  0.45494962  0.27917483  1
  O  O51  1  0.38425434  0.45103442  0.46119040  1
  O  O52  1  0.23123849  0.02835498  0.33228205  1
  O  O53  1  0.28201743  0.34985488  0.32767805  1
  O  O54  1  0.26476498  0.06898864  0.48930904  1
  H  H55  1  0.00175817  0.12806067  0.45738928  1
  C  C56  1  0.47083016  0.11991397  0.43682883  1
  H  H57  1  0.32393937  0.12226059  0.42498501  1
  H  H58  1  0.44145922  0.19871967  0.35102242  1
  C  C59  1  0.31192177  0.12192794  0.33565176  1
  C  C60  1  0.27496815  0.23963072  0.32442097  1
  H  H61  1  0.36222208  0.26965437  0.33127645  1
  O  O62  1  0.07881110  0.43184302  0.35715806  1
  Cu  Cu63  1  0.21589005  0.13016096  0.46868783  1
  C  C64  1  0.04972914  0.41873169  0.31976242  1
  O  O65  1  0.03336805  0.24672136  0.25076636  1
  C  C66  1  0.11261963  0.16745263  0.43026994  1
  H  H67  1  0.00713937  0.49176895  0.39105610  1
  C  C68  1  0.21222407  0.07933403  0.31787367  1
  O  O69  1  0.08515829  0.16082795  0.26049109  1
  H  H70  1  0.43747202  0.11992802  0.33227570  1
  C  C71  1  0.41638513  0.13227141  0.41472809  1
  O  O72  1  0.16028800  0.08641015  0.30292167  1
  C  C73  1  0.44384615  0.30517136  0.41958563  1
  O  O74  1  0.07319456  0.38606476  0.28211798  1
  C  C75  1  0.01324247  0.17518845  0.46450933  1
  H  H76  1  0.18820370  0.20376919  0.31000508  1
  C  C77  1  0.36712401  0.11523460  0.44281576  1
  C  C78  1  0.49249426  0.29451926  0.45317873  1
  O  O79  1  0.16404406  0.18464886  0.43745681  1
  O  O80  1  0.37241420  0.46596735  0.33126594  1
  C  C81  1  0.25038470  0.30627464  0.32275712  1
  O  O82  1  0.44647804  0.34904666  0.38343333  1
  H  H83  1  0.32667671  0.07034186  0.33746046  1
  O  O84  1  0.39849081  0.27504759  0.42803641  1
  C  C85  1  0.41573697  0.15619524  0.35653401  1
  C  C86  1  0.35062236  0.16955810  0.34449002  1
  Cu  Cu87  1  0.40314635  0.41595913  0.38568232  1
  C  C88  1  0.07419595  0.26817741  0.46296816  1
  O  O89  1  0.10241887  0.12190365  0.39909399  1
  H  H90  1  0.11630891  0.29307194  0.45287484  1
  C  C91  1  0.06466222  0.20433701  0.45242204  1
  H  H92  1  0.44354207  0.01642129  0.43721811  1
  H  H93  1  0.02800436  0.40276991  0.45650575  1
  C  C94  1  0.36564218  0.09202774  0.49445717  1
  C  C95  1  0.46918577  0.09160887  0.48647915  1
  O  O96  1  0.26664115  0.19585883  0.48009840  1
  C  C97  1  0.02813820  0.30211777  0.48102781  1
  C  C98  1  0.34962718  0.43747384  0.49745661  1
  H  H99  1  0.47972584  0.01341554  0.34761861  1
  C  C100  1  0.03184441  0.37294559  0.49282992  1
  Cu  Cu101  1  0.35032824  0.30658526  0.48002155  1
  O  O102  1  0.32158517  0.38601923  0.49912824  1
  C  C103  1  0.49292033  0.24780677  0.49377791  1
  H  H104  1  0.33924265  0.23785699  0.61206083  1
  H  H105  1  0.17472199  0.41927182  0.57946853  1
  H  H106  1  0.49815017  0.17410720  0.57654950  1
  C  C107  1  0.20125575  0.19495248  0.57485552  1
  H  H108  1  0.40996337  0.27921665  0.72623501  1
  H  H109  1  0.03556434  0.43467243  0.69720981  1
  H  H110  1  0.17496584  0.18303388  0.53963459  1
  C  C111  1  0.34412888  0.21097387  0.72768591  1
  H  H112  1  0.28230323  0.42498538  0.58578228  1
  C  C113  1  0.40026210  0.23272620  0.73487002  1
  H  H114  1  0.42112007  0.05491630  0.55581684  1
  C  C115  1  0.10617112  0.41847868  0.63971837  1
  C  C116  1  0.17350731  0.19964535  0.62334255  1
  C  C117  1  0.25802420  0.49467752  0.66959467  1
  C  C118  1  0.15299642  0.00555369  0.69723608  1
  C  C119  1  0.05782394  0.44921743  0.66057109  1
  C  C120  1  0.29561651  0.25851138  0.71394913  1
  H  H121  1  0.18456483  0.21624672  0.70753134  1
  C  C122  1  0.12960162  0.35963098  0.66849541  1
  C  C123  1  0.29360765  0.21193414  0.52202789  1
  C  C124  1  0.28313995  0.45218059  0.71433372  1
  Cu  Cu125  1  0.03969640  0.27286203  0.68057795  1
  H  H126  1  0.07601415  0.39066009  0.50807599  1
  O  O127  1  0.34437908  0.23400065  0.51955672  1
  O  O128  1  0.17601531  0.34210920  0.65195327  1
  C  C129  1  0.26066459  0.21323304  0.57020142  1
  C  C130  1  0.03044649  0.49377175  0.62900812  1
  O  O131  1  0.30922639  0.05156792  0.56371759  1
  C  C132  1  0.26284158  0.23610849  0.66235506  1
  C  C133  1  0.29399155  0.23257934  0.61395299  1
  O  O134  1  0.08064154  0.16907888  0.59179883  1
  C  C135  1  0.20511720  0.21580206  0.66821679  1
  C  C136  1  0.30395769  0.47305764  0.58220064  1
  C  C137  1  0.34216872  0.44384112  0.71390978  1
  O  O138  1  0.17821533  0.48151836  0.50525329  1
  O  O139  1  0.08625486  0.20261150  0.67309107  1
  C  C140  1  0.10857728  0.18789435  0.62839062  1
  O  O141  1  0.09993189  0.32830398  0.70258219  1
  C  C142  1  0.13337172  0.43913213  0.59380980  1
  C  C143  1  0.43256124  0.39901016  0.74858668  1
  C  C144  1  0.41891650  0.07637463  0.51537460  1
  C  C145  1  0.34146476  0.48585994  0.53817925  1
  H  H146  1  0.21792572  0.47189212  0.65686416  1
  H  H147  1  0.02982289  0.36804737  0.60575095  1
  O  O148  1  0.21068918  0.01215535  0.69637915  1
  C  C149  1  0.32515290  0.15057553  0.74444049  1
  H  H150  1  0.36899094  0.46734304  0.68502297  1
  O  O151  1  0.45459342  0.41987436  0.71060779  1
  C  C152  1  0.10473552  0.48878507  0.56871082  1
  H  H153  1  0.28003338  0.13583296  0.74619267  1
  H  H154  1  0.45344650  0.22026551  0.50068926  1
  H  H155  1  0.31340906  0.30545470  0.70611163  1
  H  H156  1  0.20281760  0.42694536  0.74988677  1
  C  C157  1  0.30967503  0.07209637  0.52006223  1
  C  C158  1  0.12575996  0.03685679  0.74453708  1
  H  H159  1  0.25998611  0.26008756  0.74289250  1
  C  C160  1  0.25542864  0.20876677  0.97385952  1
  C  C161  1  0.27616712  0.38679942  0.79077142  1
  O  O162  1  0.00599982  0.32632193  0.95865353  1
  H  H163  1  0.03503540  0.03193037  0.91230956  1
  O  O164  1  0.20414876  0.19232317  0.97984461  1
  H  H165  1  0.20219360  0.09363903  0.76814767  1
  Cu  Cu166  1  0.24451007  0.23014375  0.85743644  1
  H  H167  1  0.26625100  0.46895799  0.89450518  1
  C  C168  1  0.33592317  0.38116267  0.79444305  1
  C  C169  1  0.35409649  0.04150448  0.77040756  1
  C  C170  1  0.07084722  0.08477967  0.83456107  1
  H  H171  1  0.04586571  0.10325928  0.86720409  1
  O  O172  1  0.06447026  0.24974912  0.93358376  1
  H  H173  1  0.37350255  0.22689746  0.96924566  1
  O  O174  1  0.18793045  0.37317182  0.83777777  1
  C  C175  1  0.03453944  0.27687539  0.96680103  1
  H  H176  1  0.35756967  0.35665192  0.82731353  1
  C  C177  1  0.15862591  0.13298063  0.86633558  1
  O  O178  1  0.13340804  0.14304735  0.90915444  1
  C  C179  1  0.23801826  0.35840194  0.83183752  1
  C  C180  1  0.04143649  0.04092072  0.80129630  1
  Cu  Cu181  1  0.13931177  0.22023967  0.94907003  1
  O  O182  1  0.26072959  0.31602911  0.86121098  1
  C  C183  1  0.12787508  0.09904180  0.82446513  1
  C  C184  1  0.15588566  0.07801042  0.77781993  1
  O  O185  1  0.21041818  0.14841770  0.85635833  1
  O  O186  1  0.27729656  0.21702472  0.92691018  1
  H  H187  1  0.31743967  0.49270220  0.97960456  1
  C  C188  1  0.36763819  0.10748609  0.75755167  1
  O  O189  1  0.39122951  0.00060967  0.77886675  1
  O  O190  1  0.30151084  0.02463622  0.77219178  1
  O  O191  1  0.45932257  0.36936065  0.78813869  1
  H  H192  1  0.45823309  0.09468565  0.77828034  1
  C  C193  1  0.07058392  0.01628607  0.75701915  1
  C  C194  1  0.44122418  0.18731534  0.75036867  1
  C  C195  1  0.42608843  0.12702724  0.76278727  1
  C  C196  1  0.36753405  0.40481651  0.75215704  1
  C  C197  1  0.24921036  0.42000245  0.75191292  1
  C  C198  1  0.23232713  0.53180942  0.24701339  1
  C  C199  1  0.12335230  0.70530953  0.04867384  1
  H  H200  1  0.10154323  0.80821067  0.14565761  1
  C  C201  1  0.18229331  0.69676392  0.14370908  1
  C  C202  1  0.21011857  0.53262302  0.07127948  1
  C  C203  1  0.21000016  0.68953346  0.09604162  1
  C  C204  1  0.22514834  0.59656985  0.23766260  1
  O  O205  1  0.45151766  0.55777333  0.08308499  1
  H  H206  1  0.20356213  0.53791850  0.11501387  1
  H  H207  1  0.38558600  0.94854226  0.21279958  1
  C  C208  1  0.12206563  0.70629314  0.14133283  1
  O  O209  1  0.30741829  0.81676193  0.01013767  1
  O  O210  1  0.22540198  0.83348169  0.05233214  1
  O  O211  1  0.13862487  0.51184265  0.20910330  1
  C  C212  1  0.06255799  0.81202902  0.17124793  1
  O  O213  1  0.30170522  0.67490588  0.05507696  1
  C  C214  1  0.08281097  0.70084118  0.19249660  1
  H  H215  1  0.06202548  0.65550890  0.19262298  1
  C  C216  1  0.27174112  0.67513650  0.09498006  1
  O  O217  1  0.09773382  0.56030630  0.10866264  1
  Cu  Cu218  1  0.33957986  0.59774044  0.15361577  1
  H  H219  1  0.26433763  0.73131619  0.21376511  1
  O  O220  1  0.41697432  0.59308801  0.15946584  1
  O  O221  1  0.48001902  0.81867413  0.21830908  1
  C  C222  1  0.02684458  0.86504461  0.17026251  1
  O  O223  1  0.29353611  0.66786338  0.14146930  1
  O  O224  1  0.06533118  0.54931216  0.02800006  1
  H  H225  1  0.44654338  0.69769971  0.17980375  1
  C  C226  1  0.10617818  0.55408590  0.05931884  1
  C  C227  1  0.09066547  0.71235922  0.09547483  1
  H  H228  1  0.11100812  0.69966352  0.22808500  1
  H  H229  1  0.20455522  0.69377324  0.18059912  1
  O  O230  1  0.31078136  0.51944624  0.12931630  1
  C  C231  1  0.18171899  0.69018032  0.04676695  1
  H  H232  1  0.04227249  0.72399214  0.09751410  1
  C  C233  1  0.16311200  0.53661182  0.03637720  1
  C  C234  1  0.45086532  0.59714614  0.12005945  1
  C  C235  1  0.04220546  0.75948372  0.19813671  1
  O  O236  1  0.08412880  0.92018733  0.10619083  1
  Cu  Cu237  1  0.33556456  0.73628214  0.01826804  1
  O  O238  1  0.29157884  0.89723577  0.22319408  1
  C  C239  1  0.04053255  0.91789883  0.13493108  1
  H  H240  1  0.18468031  0.61230430  0.22310505  1
  C  C241  1  0.48430624  0.65491387  0.11067057  1
  Cu  Cu242  1  0.09849839  0.99230818  0.07296972  1
  C  C243  1  0.26353504  0.51757615  0.04905186  1
  O  O244  1  0.48238631  0.98659950  0.19572715  1
  C  C245  1  0.48000847  0.70352042  0.14854238  1
  C  C246  1  0.48913618  0.98848648  0.24570532  1
  H  H247  1  0.20560458  0.68362281  0.00687327  1
  O  O248  1  0.00391984  0.96312990  0.13598868  1
  C  C249  1  0.31519925  0.51062988  0.08126703  1
  C  C250  1  0.25316702  0.82928389  0.01266036  1
  O  O251  1  0.00767302  0.50071481  0.16542908  1
  O  O252  1  0.04445644  0.99518811  0.01157784  1
  H  H253  1  0.29929065  0.72844701  0.28224604  1
  H  H254  1  0.15230749  0.77055381  0.48266710  1
  H  H255  1  0.42040641  0.86495107  0.37211159  1
  C  C256  1  0.18241554  0.79385615  0.27701318  1
  C  C257  1  0.28188560  0.50585469  0.27119296  1
  C  C258  1  0.13046260  0.80820676  0.30257271  1
  C  C259  1  0.34790325  0.94694835  0.34716020  1
  C  C260  1  0.42790980  0.91662951  0.44749872  1
  Cu  Cu261  1  0.37804929  0.69105971  0.46435674  1
  H  H262  1  0.34625573  0.64617708  0.29698020  1
  C  C263  1  0.17799226  0.69068122  0.31420705  1
  C  C264  1  0.10482513  0.76706230  0.33874085  1
  C  C265  1  0.10484315  0.87268738  0.29590001  1
  O  O266  1  0.24691241  0.90207347  0.29928158  1
  O  O267  1  0.11953153  0.56013340  0.49529091  1
  O  O268  1  0.39992277  0.56430450  0.34526007  1
  O  O269  1  0.05895947  0.88465976  0.31531574  1
  C  C270  1  0.12882212  0.70719819  0.34431165  1
  C  C271  1  0.34557326  0.93793351  0.29187755  1
  C  C272  1  0.36798039  0.52700449  0.32572998  1
  C  C273  1  0.40914503  0.98208621  0.42981137  1
  C  C274  1  0.39618200  0.97555727  0.36862431  1
  O  O275  1  0.06090679  0.67716592  0.40970768  1
  C  C276  1  0.26339653  0.71257417  0.25547127  1
  C  C277  1  0.32007794  0.54880405  0.29120172  1
  H  H278  1  0.06907470  0.78253182  0.36605315  1
  H  H279  1  0.19984162  0.64484874  0.32165364  1
  Cu  Cu280  1  0.18873461  0.96801159  0.29990640  1
  C  C281  1  0.43227985  0.86346753  0.41493189  1
  C  C282  1  0.03115312  0.80551424  0.48940859  1
  C  C283  1  0.20494377  0.73270313  0.28110547  1
  H  H284  1  0.31485382  0.92728988  0.37172162  1
  C  C285  1  0.45030741  0.80791466  0.43770902  1
  C  C286  1  0.31201601  0.61443862  0.28504998  1
  O  O287  1  0.45066027  0.70109667  0.42929038  1
  O  O288  1  0.43960521  0.75245023  0.35447512  1
  Cu  Cu289  1  0.17266999  0.62218804  0.47047877  1
  O  O290  1  0.22291980  0.69007260  0.45173769  1
  C  C291  1  0.10843890  0.66592007  0.38629762  1
  C  C292  1  0.44977609  0.75108195  0.40053827  1
  O  O293  1  0.13639865  0.61787189  0.40172314  1
  C  C294  1  0.29142395  0.90925191  0.26969752  1
  C  C295  1  0.43787882  0.97822600  0.27796093  1
  H  H296  1  0.04534652  0.84164276  0.45988972  1
  C  C297  1  0.44135125  0.99191210  0.33345429  1
  C  C298  1  0.26568881  0.63976227  0.25728922  1
  C  C299  1  0.25410610  0.70875148  0.48888961  1
  H  H300  1  0.20434686  0.82648600  0.25017319  1
  O  O301  1  0.13495965  0.91491328  0.26880100  1
  C  C302  1  0.38761672  0.95236144  0.25483345  1
  H  H303  1  0.37055156  0.99829399  0.45360973  1
  C  C304  1  0.44802807  0.91476405  0.49937403  1
  C  C305  1  0.47069520  0.80505332  0.48905308  1
  O  O306  1  0.30165486  0.68248319  0.49851311  1
  C  C307  1  0.03993688  0.76289405  0.57921771  1
  H  H308  1  0.05711419  0.76157253  0.61857858  1
  O  O309  1  0.33682176  0.84574976  0.65486227  1
  H  H310  1  0.03068007  0.55164505  0.55507589  1
  C  C311  1  0.47046670  0.85978777  0.52093764  1
  C  C312  1  0.48963800  0.86301515  0.57621611  1
  C  C313  1  0.36339610  0.58535137  0.57678317  1
  H  H314  1  0.06181139  0.56553844  0.69510732  1
  O  O315  1  0.12611826  0.97306780  0.67003222  1
  C  C316  1  0.19701581  0.85071626  0.59410725  1
  C  C317  1  0.17991558  0.78595885  0.51583388  1
  O  O318  1  0.23625653  0.63174078  0.72991472  1
  C  C319  1  0.13548957  0.50864422  0.51920042  1
  O  O320  1  0.49094784  0.91320712  0.60303704  1
  C  C321  1  0.05516168  0.80567636  0.53940280  1
  C  C322  1  0.38929846  0.64874811  0.56873026  1
  O  O323  1  0.41508915  0.65934877  0.52725024  1
  C  C324  1  0.37045119  0.54203895  0.53542151  1
  C  C325  1  0.10024193  0.85846535  0.55363130  1
  C  C326  1  0.33014402  0.57358135  0.62160589  1
  C  C327  1  0.10638725  0.77405451  0.73426765  1
  H  H328  1  0.08859671  0.88117846  0.59116643  1
  Cu  Cu329  1  0.45255496  0.74756830  0.60708643  1
  H  H330  1  0.49154505  0.76120927  0.50274961  1
  C  C331  1  0.28743294  0.85702261  0.64465958  1
  H  H332  1  0.31662065  0.76451687  0.57142576  1
  H  H333  1  0.33182197  0.60789320  0.65556715  1
  C  C334  1  0.16170405  0.82913007  0.55294610  1
  O  O335  1  0.25513512  0.89131165  0.67492787  1
  C  C336  1  0.25331731  0.82695033  0.59863054  1
  C  C337  1  0.27367768  0.78030976  0.56523291  1
  O  O338  1  0.39144439  0.68771806  0.60648983  1
  H  H339  1  0.17772706  0.88714370  0.62127737  1
  H  H340  1  0.24478400  0.53837077  0.69137039  1
  H  H341  1  0.00212251  0.81706256  0.71071148  1
  C  C342  1  0.05109339  0.51643423  0.58019318  1
  Cu  Cu343  1  0.27211542  0.96013979  0.72765867  1
  H  H344  1  0.43996539  0.95632677  0.52417176  1
  C  C345  1  0.23598489  0.75996085  0.52475222  1
  O  O346  1  0.09315601  0.76978276  0.68867683  1
  H  H347  1  0.05199645  0.97663616  0.73466684  1
  O  O348  1  0.30344680  0.70436805  0.73487160  1
  H  H349  1  0.09699100  0.89373618  0.52193982  1
  C  C350  1  0.03036430  0.54691629  0.72328808  1
  H  H351  1  0.39792024  0.55059802  0.50062217  1
  C  C352  1  0.29975497  0.51532511  0.62386106  1
  Cu  Cu353  1  0.16030151  0.66675183  0.74519910  1
  C  C354  1  0.26574965  0.57172178  0.88045276  1
  C  C355  1  0.03914149  0.54908425  0.77827856  1
  C  C356  1  0.36733517  0.70271348  0.92118554  1
  Cu  Cu357  1  0.45722825  0.73313640  0.86780825  1
  O  O358  1  0.12497483  0.70938615  0.95131266  1
  H  H359  1  0.34909403  0.71669549  0.81985301  1
  O  O360  1  0.11110046  0.57859910  0.84055877  1
  H  H361  1  0.05030179  0.86324857  0.94249185  1
  H  H362  1  0.23000562  0.55603575  0.80034901  1
  C  C363  1  0.22540059  0.51148428  0.96031941  1
  C  C364  1  0.08695968  0.82191294  0.81985987  1
  O  O365  1  0.38950192  0.74887366  0.89700702  1
  O  O366  1  0.47519701  0.81769075  0.84979132  1
  C  C367  1  0.09503024  0.57624030  0.79586845  1
  H  H368  1  0.13500250  0.53244191  0.95397704  1
  H  H369  1  0.30792418  0.84605333  0.91574624  1
  H  H370  1  0.09767476  0.72218982  0.92230506  1
  H  H371  1  0.15508318  0.91442364  0.83422002  1
  H  H372  1  0.01359119  0.52988993  0.86048296  1
  O  O373  1  0.37545868  0.68946080  0.96897790  1
  C  C374  1  0.16561049  0.85456978  0.96025584  1
  C  C375  1  0.07464999  0.88252101  0.90646551  1
  O  O376  1  0.13361577  0.58624996  0.75727902  1
  C  C377  1  0.30028724  0.60788419  0.91354522  1
  H  H378  1  0.06572806  0.93445462  0.90827394  1
  H  H379  1  0.14069047  0.84502199  0.99742640  1
  C  C380  1  0.05233740  0.86173392  0.85199585  1
  C  C381  1  0.26819313  0.88062268  0.82283062  1
  C  C382  1  0.22437154  0.84534544  0.96005597  1
  Cu  Cu383  1  0.38658513  0.92880397  0.82570858  1
  H  H384  1  0.30442168  0.59420063  0.95568723  1
  C  C385  1  0.47319722  0.86484911  0.88203820  1
  C  C386  1  0.17350033  0.89059750  0.86834897  1
  O  O387  1  0.32259690  0.87139942  0.82470216  1
  C  C388  1  0.23211987  0.87376894  0.87002096  1
  C  C389  1  0.33122503  0.65780919  0.89217976  1
  H  H390  1  0.47731876  0.94961029  0.95461843  1
  H  H391  1  0.13113383  0.80274127  0.83589091  1
  C  C392  1  0.32731959  0.67453763  0.83813508  1
  C  C393  1  0.26051102  0.85052548  0.91618548  1
  C  C394  1  0.25890034  0.58550374  0.82681821  1
  O  O395  1  0.44439920  0.91278983  0.86941572  1
  C  C396  1  0.28824849  0.63835842  0.80896338  1
  C  C397  1  0.14070092  0.87625451  0.91259445  1
  C  C398  1  0.17129777  0.52526247  0.98272549  1
  C  C399  1  0.27230497  0.50734501  0.99394087  1
  O  O400  1  0.24617516  0.90317871  0.78088616  1
  C  C401  1  0.00446948  0.52307167  0.81834172  1
  O  O402  1  0.15387376  0.74754800  0.75073480  1
  C  C403  1  0.06561447  0.80974248  0.77024093  1
  O  O404  1  0.49948384  0.63015625  0.78531546  1
  C  C405  1  0.23590421  0.50970729  0.90102503  1
  H  H406  1  0.19726909  0.50211184  0.87756122  1
  C  C407  1  0.01367637  0.83236205  0.75232936  1
  C  C408  1  0.09067370  0.71703251  0.99806451  1
  O  O409  1  0.04145742  0.73026733  0.99781844  1
  C  C410  1  0.28096803  0.65812074  0.75295342  1
  O  O411  1  0.63556803  0.34249127  0.04035977  1
  H  H412  1  0.91268644  0.24065736  0.15975631  1
  O  O413  1  0.79013752  0.34066659  0.01980333  1
  H  H414  1  0.60892321  0.28375482  0.23514759  1
  C  C415  1  0.86632259  0.38870489  0.06203885  1
  C  C416  1  0.95154634  0.39302887  0.14106721  1
  H  H417  1  0.85424553  0.28856493  0.08754228  1
  O  O418  1  0.65095350  0.24087865  0.15178974  1
  O  O419  1  0.51669321  0.01851380  0.02257066  1
  C  C420  1  0.93557215  0.44978442  0.11616134  1
  Cu  Cu421  1  0.73264091  0.09980915  0.15445568  1
  C  C422  1  0.80025146  0.25768491  0.21795802  1
  C  C423  1  0.64365559  0.18908777  0.17495677  1
  H  H424  1  0.81541623  0.46434531  0.23207471  1
  O  O425  1  0.65772828  0.13741835  0.15312832  1
  H  H426  1  0.65417416  0.08956098  0.24158897  1
  O  O427  1  0.76711786  0.24402463  0.13036878  1
  O  O428  1  0.58798176  0.36142118  0.11476395  1
  H  H429  1  0.58921344  0.45985917  0.15283328  1
  C  C430  1  0.61636027  0.37998925  0.07423351  1
  C  C431  1  0.92238516  0.33874058  0.12807504  1
  C  C432  1  0.94701862  0.27746091  0.15138217  1
  C  C433  1  0.87625402  0.33464904  0.09295832  1
  C  C434  1  0.81225062  0.32021912  0.20855295  1
  C  C435  1  0.89519468  0.44377923  0.07491452  1
  O  O436  1  0.78138324  0.16084048  0.18004729  1
  H  H437  1  0.87708743  0.43013363  0.20082378  1
  Cu  Cu438  1  0.69414115  0.23795800  0.09140386  1
  C  C439  1  0.62373267  0.44842485  0.07211659  1
  C  C440  1  0.78425835  0.21993027  0.17149091  1
  O  O441  1  0.72358519  0.03351765  0.20853717  1
  Cu  Cu442  1  0.71353881  0.32967097  0.03264200  1
  O  O443  1  0.95696620  0.00209577  0.04707178  1
  H  H444  1  0.81178637  0.33899833  0.16835981  1
  C  C445  1  0.51497499  0.39909164  0.22691086  1
  O  O446  1  0.71801446  0.24183706  0.02342911  1
  C  C447  1  0.82159502  0.38869308  0.02347635  1
  H  H448  1  0.97106786  0.32032865  0.05087418  1
  H  H449  1  0.96423232  0.28744211  0.19254466  1
  Cu  Cu450  1  0.52996442  0.30079446  0.11231955  1
  H  H451  1  0.95932154  0.40243356  0.24576290  1
  C  C452  1  0.62535326  0.18598144  0.23054517  1
  C  C453  1  0.61001744  0.48152175  0.11938288  1
  C  C454  1  0.85173305  0.42759575  0.23925823  1
  H  H455  1  0.99011235  0.39057089  0.16690567  1
  C  C456  1  0.63496517  0.47862289  0.02572533  1
  H  H457  1  0.88585539  0.48608833  0.05237875  1
  H  H458  1  0.52187456  0.30037666  0.23520734  1
  C  C459  1  0.52519575  0.45941963  0.24882862  1
  C  C460  1  0.99500935  0.27790115  0.05891429  1
  C  C461  1  0.99405961  0.25362013  0.11067009  1
  C  C462  1  0.87185066  0.48739128  0.33194231  1
  C  C463  1  0.61223897  0.24110208  0.25822809  1
  C  C464  1  0.58928552  0.23849924  0.30808195  1
  C  C465  1  0.94697608  0.43092261  0.27918854  1
  C  C466  1  0.60920100  0.12732645  0.30993081  1
  C  C467  1  0.61073954  0.06766687  0.33984436  1
  C  C468  1  0.82877906  0.33845004  0.30308956  1
  O  O469  1  0.80511677  0.20519378  0.38280339  1
  C  C470  1  0.81305498  0.27579732  0.31077049  1
  C  C471  1  0.81041025  0.25909901  0.37008005  1
  O  O472  1  0.63966604  0.02146141  0.32251575  1
  O  O473  1  0.79877854  0.40237338  0.47723484  1
  O  O474  1  0.56928617  0.07793790  0.48884031  1
  O  O475  1  0.53606942  0.00451006  0.26751084  1
  C  C476  1  0.80289512  0.23321789  0.27035023  1
  C  C477  1  0.97355651  0.48001246  0.36227850  1
  H  H478  1  0.51030982  0.13222733  0.41357849  1
  O  O479  1  0.82035017  0.30087597  0.40659228  1
  H  H480  1  0.92232819  0.41204852  0.46653789  1
  O  O481  1  0.68884609  0.34172686  0.48731417  1
  H  H482  1  0.83851716  0.37172853  0.33631171  1
  H  H483  1  0.79312982  0.18374732  0.27808726  1
  C  C484  1  0.96474276  0.20882831  0.48098070  1
  H  H485  1  0.59126325  0.30497513  0.37612778  1
  H  H486  1  0.52187522  0.27835391  0.35991551  1
  H  H487  1  0.57779325  0.17885365  0.37624257  1
  C  C488  1  0.57011709  0.40721614  0.32358084  1
  H  H489  1  0.54297650  0.36919493  0.41816722  1
  O  O490  1  0.58429545  0.06426582  0.38280020  1
  C  C491  1  0.88926558  0.45040764  0.28737608  1
  C  C492  1  0.59067241  0.18073254  0.33474554  1
  H  H493  1  0.59153253  0.40728507  0.36244716  1
  C  C494  1  0.54257928  0.33183013  0.44832274  1
  C  C495  1  0.56297998  0.29226237  0.34150694  1
  Cu  Cu496  1  0.75897089  0.32697892  0.45332396  1
  C  C497  1  0.59070162  0.32233563  0.47852213  1
  C  C498  1  0.63121351  0.12983921  0.25853172  1
  C  C499  1  0.64277166  0.36059866  0.46151706  1
  C  C500  1  0.55189001  0.46228445  0.29740659  1
  C  C501  1  0.55310647  0.34984754  0.30413190  1
  O  O502  1  0.63803452  0.40234406  0.43024229  1
  Cu  Cu503  1  0.61408712  0.02366497  0.44151694  1
  C  C504  1  0.97475346  0.27412619  0.48921079  1
  O  O505  1  0.73022792  0.16978093  0.49080679  1
  O  O506  1  0.89676111  0.12884809  0.49975612  1
  C  C507  1  0.90700771  0.18832050  0.49542859  1
  C  C508  1  0.98824332  0.44337974  0.31888354  1
  Cu  Cu509  1  0.79388982  0.22437388  0.49958983  1
  C  C510  1  0.82801042  0.36022142  0.25109692  1
  C  C511  1  0.52823531  0.34348046  0.25433719  1
  O  O512  1  0.76779148  0.08198220  0.52132764  1
  O  O513  1  0.89414611  0.35085447  0.69745635  1
  C  C514  1  0.98246890  0.39032960  0.53197875  1
  H  H515  1  0.70153600  0.27551788  0.62419823  1
  C  C516  1  0.62611892  0.02768051  0.68059919  1
  O  O517  1  0.85019937  0.00328542  0.55540854  1
  C  C518  1  0.93957275  0.35376536  0.67146037  1
  O  O519  1  0.82202350  0.14604768  0.60552662  1
  O  O520  1  0.51563795  0.04418978  0.55748988  1
  C  C521  1  0.75496698  0.15400100  0.69708709  1
  H  H522  1  0.93757685  0.30070876  0.50680608  1
  O  O523  1  0.98743009  0.33870047  0.68964306  1
  H  H524  1  0.84222210  0.38219732  0.62102786  1
  O  O525  1  0.78503355  0.23429977  0.57517056  1
  H  H526  1  0.54570024  0.11497283  0.65406638  1
  C  C527  1  0.72662554  0.12353312  0.52029636  1
  O  O528  1  0.78151315  0.42069853  0.56024004  1
  Cu  Cu529  1  0.84519984  0.09369530  0.54844483  1
  C  C530  1  0.81746204  0.40636098  0.52373734  1
  C  C531  1  0.59121700  0.16636669  0.59121855  1
  C  C532  1  0.53925259  0.24779960  0.52925797  1
  C  C533  1  0.67348456  0.25014566  0.70346945  1
  C  C534  1  0.68272926  0.11923503  0.56148863  1
  C  C535  1  0.63410631  0.30680998  0.70666419  1
  O  O536  1  0.62620831  0.34377374  0.67178596  1
  C  C537  1  0.88089159  0.38691486  0.59521448  1
  C  C538  1  0.58964003  0.28269725  0.52220592  1
  C  C539  1  0.78506179  0.19216710  0.60975317  1
  C  C540  1  0.70406948  0.24212200  0.65674951  1
  O  O541  1  0.86872405  0.22712396  0.50871060  1
  C  C542  1  0.63328858  0.07753778  0.63759770  1
  C  C543  1  0.58667346  0.11940607  0.63136409  1
  C  C544  1  0.93732916  0.37503980  0.61482868  1
  C  C545  1  0.87708334  0.40181929  0.54191478  1
  C  C546  1  0.92605280  0.40307829  0.51125761  1
  C  C547  1  0.68117557  0.07768332  0.60465186  1
  C  C548  1  0.53704509  0.20564941  0.58023745  1
  H  H549  1  0.78988785  0.11739716  0.69768789  1
  C  C550  1  0.98891511  0.37814544  0.58622391  1
  O  O551  1  0.66329174  0.00297641  0.70534324  1
  C  C552  1  0.63511974  0.15864975  0.55349767  1
  H  H553  1  0.62733985  0.27877089  0.54879850  1
  C  C554  1  0.74621051  0.19461038  0.65439698  1
  H  H555  1  0.63356331  0.18658318  0.51834021  1
  O  O556  1  0.50608310  0.26942759  0.73884785  1
  H  H557  1  0.71461665  0.04509538  0.61282418  1
  C  C558  1  0.52254715  0.07042011  0.51195726  1
  O  O559  1  0.56651958  0.01496368  0.68888627  1
  H  H560  1  0.52742309  0.23802950  0.61517631  1
  C  C561  1  0.71804365  0.15845295  0.73920719  1
  H  H562  1  0.90887490  0.45710214  0.72674283  1
  C  C563  1  0.94204190  0.48667372  0.74217910  1
  C  C564  1  0.67754002  0.20720084  0.74587379  1
  H  H565  1  0.93523429  0.49263313  0.63525696  1
  Cu  Cu566  1  0.87843468  0.35578714  0.77231669  1
  O  O567  1  0.87638890  0.42989782  0.81099422  1
  H  H568  1  0.65030869  0.21589321  0.78145698  1
  O  O569  1  0.87303919  0.28053490  0.81487092  1
  H  H570  1  0.67809482  0.09613921  0.80080421  1
  Cu  Cu571  1  0.53646946  0.34120572  0.77112088  1
  H  H572  1  0.80299924  0.20074433  0.79391857  1
  C  C573  1  0.95685692  0.48917798  0.79603357  1
  H  H574  1  0.74808956  0.07854530  0.78857769  1
  C  C575  1  0.69697129  0.20102743  0.98381863  1
  C  C576  1  0.73329271  0.16109092  0.84062715  1
  C  C577  1  0.72470108  0.19695396  0.93012318  1
  C  C578  1  0.60034602  0.42723467  0.84059261  1
  Cu  Cu579  1  0.93653451  0.32922770  0.92495175  1
  C  C580  1  0.78036747  0.20053194  0.83175602  1
  O  O581  1  0.86308275  0.31587445  0.89700383  1
  C  C582  1  0.70522164  0.15890034  0.88813085  1
  C  C583  1  0.98224151  0.02159128  0.81449405  1
  H  H584  1  0.78927192  0.26617361  0.95483064  1
  O  O585  1  0.56872546  0.41864175  0.79744848  1
  C  C586  1  0.71908674  0.11962466  0.79145933  1
  C  C587  1  0.84771528  0.28125140  0.85934809  1
  O  O588  1  0.63274168  0.38914323  0.85745716  1
  O  O589  1  0.53970807  0.18192759  0.77378883  1
  Cu  Cu590  1  0.87966034  0.43857303  0.93700987  1
  O  O591  1  0.93253228  0.45133417  0.88144060  1
  C  C592  1  0.92087728  0.45509058  0.83298684  1
  C  C593  1  0.95863680  0.01724174  0.86496896  1
  H  H594  1  0.66538276  0.12986533  0.89375835  1
  C  C595  1  0.79725711  0.24243795  0.87231065  1
  C  C596  1  0.77164897  0.23749056  0.92191114  1
  H  H597  1  0.65097153  0.46607965  0.92989328  1
  C  C598  1  0.59649964  0.49105183  0.86396941  1
  H  H599  1  0.64067646  0.44693059  0.99069542  1
  C  C600  1  0.99013264  0.01963046  0.91295967  1
  H  H601  1  0.95335647  0.01885648  0.78046877  1
  C  C602  1  0.89829187  0.00085423  0.86299510  1
  O  O603  1  0.65094996  0.17635905  0.98899994  1
  C  C604  1  0.50158818  0.21082872  0.75505153  1
  H  H605  1  0.87531266  0.00304938  0.82596939  1
  O  O606  1  0.82190448  0.43326851  0.98914938  1
  H  H607  1  0.73764902  0.49612314  0.85086858  1
  O  O608  1  0.60793876  0.31008272  0.75265092  1
  C  C609  1  0.76190795  0.94671953  0.13983272  1
  C  C610  1  0.71100933  0.93641278  0.16934138  1
  C  C611  1  0.72174688  0.67478647  0.19821002  1
  H  H612  1  0.71456655  0.63988329  0.16597782  1
  Cu  Cu613  1  0.52716061  0.94684618  0.14385868  1
  O  O614  1  0.54557307  0.86378390  0.16736498  1
  C  C615  1  0.54189777  0.97265096  0.03673898  1
  H  H616  1  0.63398427  0.62971235  0.07150875  1
  H  H617  1  0.64090286  0.87604781  0.19006126  1
  C  C618  1  0.69963453  0.83501295  0.13353737  1
  H  H619  1  0.51892591  0.63107340  0.03281730  1
  O  O620  1  0.56700310  0.96942941  0.08370243  1
  C  C621  1  0.63302728  0.57785924  0.07104858  1
  C  C622  1  0.73818852  0.78029783  0.22977296  1
  C  C623  1  0.60560410  0.59230755  0.16202046  1
  C  C624  1  0.67731732  0.88345987  0.16486939  1
  C  C625  1  0.68932328  0.98775677  0.20414252  1
  H  H626  1  0.74363139  0.83147546  0.21928879  1
  C  C627  1  0.83175860  0.90431214  0.07590328  1
  O  O628  1  0.96490469  0.55363675  0.10096957  1
  H  H629  1  0.63562862  0.76074946  0.15329863  1
  C  C630  1  0.74775460  0.84492716  0.10133648  1
  C  C631  1  0.61863935  0.54575989  0.11693107  1
  O  O632  1  0.61052604  0.64710279  0.15454311  1
  O  O633  1  0.84090239  0.87078249  0.03461235  1
  Cu  Cu634  1  0.98774887  0.56926288  0.02886941  1
  C  C635  1  0.71571595  0.73998146  0.19020907  1
  H  H636  1  0.68509981  0.74014836  0.10461426  1
  H  H637  1  0.50706324  0.50173446  0.23039032  1
  C  C638  1  0.68058755  0.76633283  0.14218280  1
  H  H639  1  0.76356237  0.80688522  0.07675371  1
  H  H640  1  0.95106323  0.90881393  0.20462518  1
  H  H641  1  0.78765009  0.99119143  0.14151359  1
  O  O642  1  0.86323152  0.95196321  0.08303457  1
  O  O643  1  0.58387325  0.57129046  0.20668147  1
  C  C644  1  0.77996204  0.90022564  0.10522952  1
  Cu  Cu645  1  0.93736714  0.95498224  0.10718250  1
  C  C646  1  0.63949844  0.54454939  0.02260261  1
  C  C647  1  0.57418518  0.86044673  0.02258043  1
  O  O648  1  0.74870123  0.54326928  0.22480232  1
  H  H649  1  0.59802956  0.86336848  0.05966914  1
  C  C650  1  0.51330925  0.81576144  0.18125454  1
  C  C651  1  0.96320015  0.81539565  0.23476358  1
  C  C652  1  0.55032202  0.76544456  0.10368898  1
  C  C653  1  0.51786705  0.66552229  0.06596903  1
  H  H654  1  0.57525613  0.80818342  0.10121879  1
  C  C655  1  0.99736802  0.75991008  0.23382292  1
  C  C656  1  0.55163518  0.71848460  0.06534136  1
  H  H657  1  0.63499270  0.75251895  0.03208328  1
  O  O658  1  0.63881673  0.98611173  0.22062636  1
  C  C659  1  0.73860069  0.65429389  0.24854520  1
  C  C660  1  0.97852241  0.86731927  0.20408437  1
  O  O661  1  0.91277150  0.59092959  0.01631305  1
  C  C662  1  0.99230343  0.99215712  0.00844935  1
  C  C663  1  0.51242176  0.75756608  0.14739329  1
  C  C664  1  0.58823506  0.74429165  0.01831641  1
  C  C665  1  0.96911872  0.50515335  0.12783735  1
  C  C666  1  0.54147279  0.91147646  0.00667927  1
  H  H667  1  0.83883556  0.67038980  0.00957610  1
  C  C668  1  0.96753488  0.74741553  0.42051019  1
  C  C669  1  0.66676577  0.78344307  0.46061142  1
  Cu  Cu670  1  0.87940454  0.78564702  0.37089899  1
  H  H671  1  0.58077807  0.80365401  0.33337676  1
  H  H672  1  0.74996203  0.86189975  0.44295268  1
  C  C673  1  0.75280463  0.69505646  0.28940035  1
  C  C674  1  0.60918638  0.79399441  0.36636584  1
  C  C675  1  0.64009120  0.68593262  0.34273313  1
  C  C676  1  0.67060682  0.73307092  0.42432176  1
  C  C677  1  0.61039767  0.84572068  0.39935173  1
  H  H678  1  0.64245632  0.87840224  0.47678021  1
  C  C679  1  0.63674331  0.83745318  0.44831034  1
  C  C680  1  0.64119497  0.73920334  0.37660272  1
  O  O681  1  0.88105461  0.87488692  0.26814406  1
  C  C682  1  0.77394661  0.80140801  0.32039143  1
  O  O683  1  0.94164538  0.56889411  0.44216861  1
  C  C684  1  0.58490513  0.90638571  0.38488893  1
  H  H685  1  0.76285750  0.66947340  0.32808662  1
  Cu  Cu686  1  0.60706855  0.95790398  0.28174581  1
  O  O687  1  0.57690310  0.94470466  0.42249558  1
  Cu  Cu688  1  0.67170066  0.55157573  0.33461871  1
  O  O689  1  0.77761192  0.86000192  0.31218838  1
  O  O690  1  0.66732111  0.63714144  0.35790768  1
  O  O691  1  0.74319895  0.56577250  0.30759064  1
  Cu  Cu692  1  0.84822960  0.89849450  0.33409857  1
  H  H693  1  0.69433374  0.68852793  0.43272340  1
  O  O694  1  0.83028327  0.92278744  0.39955495  1
  O  O695  1  0.90020174  0.78416737  0.29934947  1
  O  O696  1  0.94991545  0.69293658  0.41105188  1
  C  C697  1  0.83895850  0.85861959  0.47884184  1
  O  O698  1  0.80068425  0.77788749  0.36009784  1
  Cu  Cu699  1  0.58236331  0.62361552  0.26037846  1
  O  O700  1  0.57126367  0.91609350  0.33794320  1
  O  O701  1  0.91232169  0.92169331  0.44149978  1
  C  C702  1  0.86405266  0.90600098  0.43973176  1
  O  O703  1  0.54149278  0.56943861  0.30215369  1
  C  C704  1  0.78138701  0.84230006  0.47300233  1
  O  O705  1  0.65882932  0.98929148  0.49642918  1
  C  C706  1  0.90130467  0.54509962  0.41191940  1
  O  O707  1  0.60805555  0.68592551  0.30083966  1
  O  O708  1  0.95493191  0.79351675  0.39299684  1
  O  O709  1  0.85121098  0.56113647  0.41616188  1
  C  C710  1  0.75445453  0.75916532  0.27941821  1
  C  C711  1  0.56347279  0.52254730  0.32249813  1
  H  H712  1  0.98077853  0.72003644  0.25780423  1
  O  O713  1  0.60395770  0.52822507  0.35756079  1
  C  C714  1  0.91264216  0.82669075  0.26751505  1
  H  H715  1  0.82999906  0.50870330  0.33145788  1
  C  C716  1  0.99704893  0.75482363  0.47284321  1
  Cu  Cu717  1  0.99805779  0.62322242  0.42233315  1
  C  C718  1  0.91758618  0.50357780  0.36691534  1
  C  C719  1  0.74447650  0.58310549  0.25753790  1
  H  H720  1  0.69760570  0.73100390  0.52798727  1
  O  O721  1  0.53314979  0.61745012  0.63180855  1
  C  C722  1  0.82021500  0.55968428  0.70785868  1
  H  H723  1  0.79989217  0.90418458  0.68515425  1
  O  O724  1  0.78654285  0.64364899  0.57583214  1
  C  C725  1  0.85751662  0.80386923  0.55810726  1
  Cu  Cu726  1  0.91528450  0.71887382  0.69370221  1
  C  C727  1  0.60707975  0.69460354  0.64875659  1
  Cu  Cu728  1  0.86282676  0.63676471  0.58374992  1
  H  H729  1  0.74026332  0.51430091  0.73688866  1
  H  H730  1  0.59060378  0.77436493  0.69936309  1
  H  H731  1  0.90050386  0.61005658  0.69602962  1
  H  H732  1  0.74400263  0.81459605  0.72026154  1
  H  H733  1  0.67110917  0.84570850  0.72432007  1
  H  H734  1  0.63765653  0.86340565  0.61418198  1
  C  C735  1  0.74772823  0.95004841  0.56403268  1
  C  C736  1  0.86599792  0.60060399  0.72411127  1
  C  C737  1  0.72042110  0.72687601  0.64702968  1
  O  O738  1  0.85627206  0.56152575  0.62392882  1
  Cu  Cu739  1  0.91784240  0.89967183  0.64478096  1
  H  H740  1  0.97164365  0.57230932  0.63001184  1
  H  H741  1  0.77918833  0.75349255  0.58433594  1
  C  C742  1  0.71927780  0.87245488  0.64964173  1
  C  C743  1  0.77110760  0.90452145  0.65016953  1
  H  H744  1  0.62347657  0.61015732  0.60838670  1
  C  C745  1  0.70209265  0.67098078  0.62165186  1
  C  C746  1  0.70413296  0.82616177  0.69562540  1
  O  O747  1  0.93313690  0.82273424  0.61079645  1
  C  C748  1  0.79956108  0.78524800  0.55552273  1
  O  O749  1  0.50284593  0.81067887  0.59792890  1
  C  C750  1  0.67903995  0.88628328  0.61058921  1
  O  O751  1  0.87968855  0.96932883  0.63398402  1
  C  C752  1  0.69173308  0.92682590  0.56880980  1
  C  C753  1  0.73550911  0.62941520  0.58585306  1
  H  H754  1  0.76385589  0.74463779  0.64239086  1
  C  C755  1  0.78623622  0.94181166  0.60660824  1
  C  C756  1  0.89039947  0.78676999  0.60360855  1
  O  O757  1  0.87255565  0.74754501  0.63838469  1
  O  O758  1  0.71240713  0.57879355  0.56773627  1
  C  C759  1  0.69950478  0.77986131  0.51422307  1
  C  C760  1  0.97242050  0.52267368  0.64710584  1
  H  H761  1  0.76283786  0.98389968  0.53578767  1
  C  C762  1  0.64359318  0.65374757  0.62307613  1
  C  C763  1  0.62239597  0.75062983  0.67360875  1
  C  C764  1  0.68094064  0.76608290  0.67018945  1
  C  C765  1  0.76376677  0.80284195  0.51397028  1
  C  C766  1  0.84106318  0.97329644  0.59762965  1
  C  C767  1  0.97349626  0.67810561  0.60344689  1
  C  C768  1  0.77810350  0.54251284  0.74568119  1
  Cu  Cu769  1  0.55220291  0.97754164  0.59407644  1
  O  O770  1  0.93900013  0.63523004  0.58670146  1
  C  C771  1  0.54232333  0.67167573  0.64523340  1
  C  C772  1  0.99544093  0.71965032  0.56289872  1
  C  C773  1  0.81537291  0.54178548  0.65252364  1
  O  O774  1  0.91477419  0.86533128  0.71032960  1
  O  O775  1  0.59505453  0.93660722  0.54298206  1
  H  H776  1  0.67717800  0.80610865  0.54469884  1
  C  C777  1  0.64695805  0.95157583  0.53407658  1
  O  O778  1  0.98074698  0.68928292  0.65211034  1
  O  O779  1  0.77203209  0.51156696  0.63643282  1
  C  C780  1  0.87832661  0.84324132  0.51861575  1
  C  C781  1  0.97775689  0.51999272  0.70804804  1
  H  H782  1  0.56612492  0.99466359  0.72283761  1
  O  O783  1  0.50086897  0.71116063  0.65837846  1
  H  H784  1  0.92556379  0.85602294  0.52083376  1
  C  C785  1  0.97847106  0.71215717  0.51062065  1
  Cu  Cu786  1  0.74692579  0.50236413  0.56390941  1
  H  H787  1  0.94221028  0.68155365  0.50217881  1
  H  H788  1  0.58734888  0.66158376  0.91478493  1
  H  H789  1  0.58884948  0.70818578  0.98642303  1
  C  C790  1  0.59058067  0.61447161  0.90042913  1
  C  C791  1  0.52240383  0.64257676  0.82584593  1
  O  O792  1  0.52391912  0.70238525  0.84345667  1
  C  C793  1  0.97612187  0.86819328  0.78409201  1
  H  H794  1  0.54125485  0.76147538  0.91792313  1
  C  C795  1  0.91463488  0.66887153  0.79448453  1
  H  H796  1  0.82898796  0.62796526  0.85234931  1
  C  C797  1  0.76690182  0.66401531  0.95414491  1
  H  H798  1  0.97170735  0.91291358  0.85899602  1
  C  C799  1  0.76125387  0.57906066  0.89416782  1
  C  C800  1  0.73709960  0.63393329  0.91313388  1
  C  C801  1  0.56072652  0.53312802  0.83802187  1
  C  C802  1  0.78463053  0.56642085  0.79675531  1
  O  O803  1  0.79519077  0.93340294  0.95768288  1
  C  C804  1  0.82747270  0.60898868  0.81320957  1
  H  H805  1  0.69467923  0.56316910  0.83116833  1
  C  C806  1  0.81669927  0.64528358  0.97758574  1
  C  C807  1  0.90374399  0.98636906  0.95523373  1
  C  C808  1  0.81407029  0.55662989  0.91422730  1
  C  C809  1  0.99927404  0.88393118  0.83300596  1
  H  H810  1  0.69197763  0.65070875  0.90190686  1
  C  C811  1  0.89091298  0.56189617  0.97786443  1
  C  C812  1  0.50844948  0.85752170  0.92915394  1
  C  C813  1  0.56033153  0.59403542  0.85657221  1
  C  C814  1  0.83863861  0.58945883  0.95501947  1
  C  C815  1  0.74156473  0.72796940  0.96743000  1
  C  C816  1  0.73992785  0.54865606  0.84103537  1
  O  O817  1  0.91650551  0.68488691  0.83917651  1
  C  C818  1  0.62521077  0.56776689  0.92760671  1
  C  C819  1  0.65029455  0.58508395  0.97799486  1
  C  C820  1  0.96281229  0.99884272  0.95852125  1
  C  C821  1  0.53925977  0.80373099  0.94313370  1
  O  O822  1  0.69434181  0.73994437  0.95241542  1
  C  C823  1  0.81030466  0.95439153  0.91192818  1
  Cu  Cu824  1  0.78541105  0.85030013  0.98159537  1
  C  C825  1  0.87122476  0.98074354  0.90868877  1
  H  H826  1  0.53717849  0.51916349  0.80134514  1
  C  C827  1  0.86780218  0.62452536  0.77434534  1
  C  C828  1  0.50642874  0.91149287  0.96294971  1
  O  O829  1  0.91550545  0.51201580  0.96134447  1
  C  C830  1  0.62490986  0.50374720  0.91144145  1
  O  O831  1  0.88456016  0.92102995  0.77631393  1
  H  H832  1  0.83761096  0.51825949  0.89539297  1
  O  O833  1  0.77176727  0.76487458  0.99730157  1
  O  O834  1  0.78447327  0.94262336  0.87253668  1
  H  H835  1  0.88092041  0.97024253  0.99051844  1
  H  H836  1  0.66313878  0.63363359  0.98455820  1
  C  C837  1  0.92023242  0.88828518  0.75693283  1
  C  C838  1  0.56804762  0.80598870  0.99137046  1
  O  O839  1  0.94301417  0.69712881  0.75633251  1
