# generated using pymatgen
data_ZnH10(C2N)4
_symmetry_space_group_name_H-M   'P 1'
_cell_length_a   29.08976429
_cell_length_b   22.00219047
_cell_length_c   17.82248145
_cell_angle_alpha   90.00000000
_cell_angle_beta   90.00000000
_cell_angle_gamma   90.00000000
_symmetry_Int_Tables_number   1
_chemical_formula_structural   ZnH10(C2N)4
_chemical_formula_sum   'Zn48 H480 C384 N192'
_cell_volume   11407.07491376
_cell_formula_units_Z   48
loop_
 _symmetry_equiv_pos_site_id
 _symmetry_equiv_pos_as_xyz
  1  'x, y, z'
loop_
 _atom_site_type_symbol
 _atom_site_label
 _atom_site_symmetry_multiplicity
 _atom_site_fract_x
 _atom_site_fract_y
 _atom_site_fract_z
 _atom_site_occupancy
  Zn  Zn0  1  0.21526608  0.43771993  0.20311452  1
  N  N1  1  0.21635128  0.09699422  0.13493830  1
  H  H2  1  0.24064045  0.31631087  0.09629129  1
  H  H3  1  0.17160812  0.08544133  0.19686792  1
  C  C4  1  0.17533864  0.31810631  0.16206432  1
  H  H5  1  0.16463431  0.43571674  0.36155089  1
  Zn  Zn6  1  0.08231434  0.04357391  0.21901603  1
  C  C7  1  0.01400767  0.20638816  0.05567959  1
  C  C8  1  0.17537121  0.08350551  0.13429467  1
  C  C9  1  0.12998028  0.06093447  0.29918780  1
  H  H10  1  0.11109569  0.43044175  0.21694791  1
  H  H11  1  0.24658952  0.29210540  0.19045335  1
  C  C12  1  0.10132036  0.32759743  0.17741853  1
  H  H13  1  0.14551020  0.07621855  0.01707744  1
  C  C14  1  0.00441432  0.44656491  0.46357895  1
  H  H15  1  0.15023927  0.35214142  0.05251398  1
  C  C16  1  0.12645075  0.36522208  0.00441562  1
  C  C17  1  0.13793270  0.07518146  0.07602177  1
  C  C18  1  0.23069057  0.12678315  0.47785025  1
  N  N19  1  0.24556509  0.42003290  0.30339831  1
  H  H20  1  0.15152051  0.10082435  0.30907356  1
  N  N21  1  0.16759452  0.37531578  0.18733043  1
  H  H22  1  0.10636510  0.47053109  0.38370880  1
  C  C23  1  0.07299719  0.06256442  0.04253987  1
  C  C24  1  0.12276793  0.38465686  0.19648716  1
  N  N25  1  0.09659156  0.06790588  0.10535162  1
  N  N26  1  0.13404985  0.28733967  0.15686213  1
  H  H27  1  0.02266498  0.03759991  0.37282918  1
  Zn  Zn28  1  0.17483028  0.01223516  0.46061911  1
  H  H29  1  0.06417269  0.31862720  0.16327308  1
  C  C30  1  0.22292313  0.29213020  0.14148803  1
  H  H31  1  0.02069556  0.16737074  0.09906264  1
  H  H32  1  0.21100197  0.14244401  0.42631114  1
  C  C33  1  0.04018663  0.49133218  0.44919791  1
  H  H34  1  0.21694408  0.32997779  0.31669164  1
  C  C35  1  0.13653506  0.47051648  0.34980293  1
  H  H36  1  0.00316262  0.05493352  0.01448636  1
  H  H37  1  0.04304818  0.23460119  0.04901368  1
  C  C38  1  0.23797281  0.36757652  0.33981665  1
  N  N39  1  0.00058339  0.02517511  0.21602159  1
  N  N40  1  0.13901858  0.02113233  0.34817159  1
  H  H41  1  0.22137630  0.24531150  0.12192082  1
  H  H42  1  0.01986796  0.36386515  0.24932016  1
  H  H43  1  0.17219069  0.19001791  0.06542926  1
  C  C44  1  0.16815723  0.20003611  0.00218039  1
  C  C45  1  0.07406827  0.00534410  0.49327885  1
  C  C46  1  0.10395277  0.09455491  0.80863471  1
  N  N47  1  0.09021250  0.26637078  0.95439715  1
  H  H48  1  0.13581024  0.12412885  0.65691453  1
  Zn  Zn49  1  0.24941603  0.48804832  0.84710113  1
  N  N50  1  0.05772299  0.05626930  0.60269094  1
  H  H51  1  0.17556188  0.06149184  0.63542907  1
  N  N52  1  0.07110182  0.06147174  0.77238563  1
  N  N53  1  0.23955471  0.04047995  0.98225193  1
  H  H54  1  0.14583565  0.17782356  0.78878077  1
  H  H55  1  0.04392806  0.06120624  0.92979531  1
  H  H56  1  0.05655052  0.32130536  0.87546960  1
  N  N57  1  0.11382999  0.01827184  0.52580543  1
  H  H58  1  0.00046015  0.01963265  0.53972721  1
  H  H59  1  0.00604951  0.13202473  0.57824724  1
  H  H60  1  0.08002333  0.19936876  0.60401631  1
  H  H61  1  0.18392860  0.39495596  0.68951086  1
  N  N62  1  0.12663835  0.06034174  0.86046859  1
  C  C63  1  0.03929205  0.02264438  0.54496942  1
  H  H64  1  0.20047146  0.09293077  0.89784119  1
  H  H65  1  0.24220453  0.23193287  0.76030364  1
  H  H66  1  0.03244170  0.17878049  0.91030332  1
  C  C67  1  0.13813448  0.07274555  0.65238762  1
  C  C68  1  0.11028591  0.00297333  0.85651005  1
  H  H69  1  0.22289272  0.17961463  0.69254090  1
  C  C70  1  0.02976574  0.22342678  0.88658928  1
  Zn  Zn71  1  0.02870578  0.08694393  0.69313573  1
  C  C72  1  0.11094729  0.16471832  0.80388925  1
  N  N73  1  0.00089211  0.22026049  0.83230319  1
  H  H74  1  0.04381351  0.31368171  0.56989880  1
  N  N75  1  0.22477131  0.31498283  0.60409210  1
  H  H76  1  0.00492449  0.20084323  0.70999343  1
  C  C77  1  0.07414281  0.00387881  0.80272707  1
  H  H78  1  0.05001122  0.45895396  0.90987861  1
  N  N79  1  0.20516624  0.45504078  0.77099324  1
  H  H80  1  0.24683854  0.37106869  0.51373728  1
  C  C81  1  0.05277804  0.22251527  0.63381422  1
  C  C82  1  0.21089102  0.40438107  0.73289427  1
  C  C83  1  0.03577243  0.28225449  0.61909596  1
  C  C84  1  0.05828762  0.27670023  0.90225705  1
  H  H85  1  0.03169242  0.44365098  0.64520952  1
  N  N86  1  0.07034154  0.49346377  0.93224707  1
  C  C87  1  0.10365917  0.05065529  0.59203947  1
  C  C88  1  0.22380674  0.22955165  0.70589857  1
  C  C89  1  0.24691438  0.26728975  0.64448651  1
  C  C90  1  0.04030034  0.48722352  0.61660027  1
  N  N91  1  0.03163306  0.18425571  0.67495022  1
  C  C92  1  0.21511479  0.05016386  0.92078008  1
  H  H93  1  0.09121730  0.18609904  0.75899780  1
  H  H94  1  0.13569251  0.05164072  0.70815445  1
  H  H95  1  0.10147750  0.18301072  0.86049210  1
  N  N96  1  0.22479305  0.26402818  0.91546387  1
  H  H97  1  0.12839034  0.47759149  0.86490300  1
  H  H98  1  0.22237044  0.36682573  0.92977950  1
  H  H99  1  0.01673274  0.41380207  0.73230021  1
  H  H100  1  0.18803914  0.24806024  0.71391637  1
  C  C101  1  0.21357643  0.21596465  0.96453310  1
  C  C102  1  0.10323214  0.32038565  0.97147395  1
  N  N103  1  0.00394216  0.30612247  0.66338503  1
  C  C104  1  0.03829814  0.05841837  0.99273630  1
  H  H105  1  0.12495058  0.41482786  0.98530628  1
  H  H106  1  0.00283667  0.33825868  0.98234609  1
  H  H107  1  0.14626448  0.23982104  0.99249639  1
  H  H108  1  0.00969676  0.18200956  0.99989658  1
  H  H109  1  0.00508036  0.41021537  0.50328599  1
  N  N110  1  0.22330455  0.07060975  0.50651017  1
  H  H111  1  0.15188173  0.15618180  0.98126833  1
  N  N112  1  0.18653360  0.92486496  0.44250524  1
  H  H113  1  0.20593928  0.82741922  0.10708231  1
  N  N114  1  0.03577761  0.79956597  0.00714095  1
  H  H115  1  0.24265080  0.55398816  0.21039103  1
  C  C116  1  0.01737447  0.88500984  0.07722512  1
  N  N117  1  0.11616078  0.56879799  0.28485567  1
  C  C118  1  0.04952603  0.60063032  0.07798077  1
  H  H119  1  0.24825656  0.96931362  0.32379412  1
  N  N120  1  0.21113856  0.83710821  0.39322935  1
  C  C121  1  0.00101995  0.71990612  0.19711263  1
  Zn  Zn122  1  0.06177329  0.60085470  0.35946899  1
  H  H123  1  0.23979479  0.90577944  0.26398908  1
  H  H124  1  0.01938239  0.92059056  0.11780564  1
  C  C125  1  0.05147410  0.85263020  0.03794985  1
  Zn  Zn126  1  0.24551083  0.64892989  0.29231158  1
  N  N127  1  0.08697012  0.64588944  0.45068024  1
  H  H128  1  0.19801204  0.85908990  0.01712854  1
  N  N129  1  0.02558494  0.52607792  0.39281634  1
  H  H130  1  0.20019527  0.56407345  0.31892659  1
  N  N131  1  0.03536777  0.89721751  0.27657358  1
  C  C132  1  0.02137896  0.54748867  0.07897808  1
  C  C133  1  0.15689645  0.54929534  0.17777796  1
  C  C134  1  0.12782002  0.67256515  0.45502215  1
  N  N135  1  0.22145082  0.73704954  0.25384543  1
  H  H136  1  0.02501494  0.93686590  0.25467099  1
  C  C137  1  0.21225062  0.81693645  0.04653788  1
  N  N138  1  0.02622587  0.66623968  0.29806590  1
  C  C139  1  0.14699647  0.79105277  0.27551128  1
  H  H140  1  0.15155364  0.66847819  0.40944079  1
  N  N141  1  0.21708898  0.59001971  0.35425209  1
  H  H142  1  0.11118338  0.63114608  0.19499334  1
  C  C143  1  0.10575109  0.98699831  0.30862360  1
  C  C144  1  0.14068936  0.51044205  0.29209413  1
  C  C145  1  0.18735430  0.82539554  0.45611382  1
  C  C146  1  0.06975695  0.88746894  0.32287485  1
  C  C147  1  0.02393301  0.74726623  0.40158227  1
  H  H148  1  0.01635185  0.61892155  0.19001702  1
  H  H149  1  0.09764329  0.75680805  0.13618681  1
  C  C150  1  0.12988759  0.73267805  0.11848368  1
  C  C151  1  0.20691519  0.89805445  0.38079600  1
  C  C152  1  0.12852860  0.58984018  0.21659109  1
  C  C153  1  0.16908330  0.72109247  0.16224985  1
  H  H154  1  0.11073788  0.77538854  0.27565364  1
  H  H155  1  0.12758410  0.91535922  0.38700508  1
  N  N156  1  0.12133285  0.70647725  0.05350326  1
  C  C157  1  0.10178193  0.92976356  0.34451954  1
  H  H158  1  0.21341965  0.61173512  0.01298440  1
  H  H159  1  0.14668698  0.83679402  0.24864055  1
  H  H160  1  0.17594366  0.55379357  0.12054288  1
  C  C161  1  0.17817842  0.74820427  0.23307190  1
  H  H162  1  0.07358926  0.61770083  0.12319395  1
  H  H163  1  0.19410534  0.53961901  0.44475744  1
  N  N164  1  0.00128878  0.75468574  0.25739122  1
  H  H165  1  0.19165624  0.68836431  0.13447500  1
  H  H166  1  0.15798805  0.79554471  0.33641497  1
  H  H167  1  0.00122223  0.78824125  0.41416826  1
  H  H168  1  0.06673570  0.84073548  0.34375823  1
  H  H169  1  0.08993263  0.85661769  0.05104017  1
  C  C170  1  0.01471014  0.66066426  0.22546229  1
  C  C171  1  0.22323246  0.93334591  0.31058765  1
  C  C172  1  0.01508009  0.72347017  0.31923716  1
  H  H173  1  0.07305794  0.98238892  0.43537900  1
  C  C174  1  0.21339841  0.58249818  0.42806513  1
  H  H175  1  0.02139244  0.51139185  0.12013080  1
  H  H176  1  0.19334496  0.77425379  0.03090747  1
  C  C177  1  0.23953443  0.61930961  0.47410837  1
  H  H178  1  0.14104417  0.67870048  0.02176011  1
  N  N179  1  0.03901826  0.63328272  0.01735341  1
  H  H180  1  0.07241525  0.50224696  0.48294778  1
  H  H181  1  0.19063511  0.95796307  0.28919802  1
  N  N182  1  0.16585750  0.50452241  0.22467042  1
  H  H183  1  0.05939915  0.88501923  0.46525155  1
  H  H184  1  0.06017509  0.76098690  0.40995490  1
  H  H185  1  0.01311767  0.71323568  0.44244282  1
  H  H186  1  0.00623464  0.59147813  0.49923968  1
  C  C187  1  0.17564808  0.88188919  0.49190431  1
  H  H188  1  0.18561956  0.77996439  0.48082716  1
  C  C189  1  0.13395368  0.57537843  0.60315711  1
  Zn  Zn190  1  0.06936422  0.71566028  0.98005183  1
  N  N191  1  0.08998929  0.69894236  0.55808833  1
  H  H192  1  0.22980390  0.97455040  0.59183785  1
  H  H193  1  0.07168076  0.61809140  0.71044235  1
  H  H194  1  0.14683198  0.95119269  0.68699132  1
  C  C195  1  0.18080903  0.72225545  0.83035841  1
  C  C196  1  0.07227644  0.65159285  0.76092651  1
  C  C197  1  0.21563587  0.99229304  0.88313980  1
  N  N198  1  0.18525230  0.59391133  0.70029203  1
  C  C199  1  0.07830590  0.64299309  0.84109763  1
  N  N200  1  0.07908786  0.69841322  0.86840693  1
  N  N201  1  0.14869196  0.90537913  0.67117324  1
  C  C202  1  0.01732243  0.62800596  0.54027660  1
  Zn  Zn203  1  0.16210979  0.52344066  0.75269352  1
  H  H204  1  0.11605960  0.57991124  0.54825572  1
  N  N205  1  0.23886116  0.95120833  0.92408095  1
  C  C206  1  0.17092584  0.61220724  0.63646761  1
  H  H207  1  0.20200606  0.98170937  0.82818809  1
  C  C208  1  0.07577573  0.73990032  0.81330259  1
  C  C209  1  0.08098649  0.51415634  0.63050098  1
  H  H210  1  0.01822583  0.60459769  0.59523629  1
  H  H211  1  0.07537818  0.82851387  0.87014193  1
  N  N212  1  0.22204288  0.69640202  0.82403801  1
  H  H213  1  0.03147302  0.87883883  0.65207045  1
  C  C214  1  0.06431731  0.65960666  0.51583694  1
  H  H215  1  0.18675095  0.65258027  0.61459787  1
  C  C216  1  0.10755243  0.87630851  0.66113716  1
  H  H217  1  0.11655278  0.82436075  0.79409297  1
  N  N218  1  0.06952477  0.71014928  0.74631193  1
  N  N219  1  0.20053626  0.55283665  0.84501757  1
  N  N220  1  0.22842703  0.79479620  0.86123578  1
  C  C221  1  0.15928093  0.80283072  0.65739116  1
  H  H222  1  0.17461956  0.75639552  0.65402375  1
  H  H223  1  0.12099597  0.58310228  0.98244984  1
  H  H224  1  0.16278007  0.89359354  0.54847207  1
  C  C225  1  0.08194900  0.81098736  0.81440471  1
  Zn  Zn226  1  0.23618114  0.61813769  0.77265562  1
  H  H227  1  0.06073116  0.94643712  0.62030265  1
  C  C228  1  0.18093186  0.86066426  0.66990752  1
  H  H229  1  0.05042195  0.93010376  0.72023508  1
  Zn  Zn230  1  0.06497438  0.74806156  0.64105522  1
  C  C231  1  0.13716938  0.55750928  0.93794241  1
  H  H232  1  0.15423562  0.74446738  0.53974252  1
  N  N233  1  0.11440839  0.81643713  0.65205267  1
  H  H234  1  0.14896936  0.70085921  0.80521597  1
  H  H235  1  0.12164577  0.96426282  0.89372514  1
  H  H236  1  0.15912600  0.82234901  0.86462048  1
  C  C237  1  0.05978009  0.90877769  0.66286672  1
  H  H238  1  0.05662866  0.83257830  0.77534400  1
  H  H239  1  0.07625285  0.60006208  0.87062666  1
  H  H240  1  0.21606324  0.86968084  0.67966591  1
  H  H241  1  0.04674939  0.96942600  0.78504477  1
  C  C242  1  0.18521998  0.78492953  0.85670930  1
  C  C243  1  0.18161889  0.56997340  0.91026077  1
  H  H244  1  0.23746910  0.60959396  0.53621728  1
  C  C245  1  0.20959463  0.61933377  0.94986963  1
  H  H246  1  0.19313572  0.66526678  0.93885486  1
  N  N247  1  0.00015342  0.76969448  0.62146198  1
  N  N248  1  0.11949938  0.53347880  0.65099404  1
  C  C249  1  0.12903217  0.70987575  0.52168071  1
  C  C250  1  0.00332008  0.60079847  0.98191615  1
  H  H251  1  0.24432357  0.62344865  0.92525970  1
  H  H252  1  0.01473354  0.50172146  0.57266015  1
  H  H253  1  0.05035021  0.51569425  0.97223259  1
  H  H254  1  0.00114783  0.91552600  0.92359372  1
  C  C255  1  0.00113863  0.84605814  0.51778874  1
  C  C256  1  0.11449178  0.50609312  0.91183953  1
  H  H257  1  0.07142391  0.83784053  0.54702388  1
  C  C258  1  0.04681588  0.85687316  0.50932593  1
  N  N259  1  0.39581267  0.07154483  0.11348538  1
  H  H260  1  0.39019262  0.20495285  0.08914466  1
  N  N261  1  0.29994998  0.41513941  0.39348322  1
  C  C262  1  0.30739418  0.28462001  0.25936396  1
  H  H263  1  0.33426071  0.17846976  0.07709842  1
  C  C264  1  0.45695813  0.29664431  0.01969096  1
  H  H265  1  0.35234390  0.07699300  0.25485825  1
  Zn  Zn266  1  0.35394457  0.43600105  0.45660427  1
  H  H267  1  0.44275402  0.45468333  0.35696676  1
  N  N268  1  0.38234205  0.34475613  0.44867221  1
  H  H269  1  0.32210140  0.38494748  0.24093368  1
  H  H270  1  0.47410542  0.23824403  0.39235842  1
  N  N271  1  0.31707082  0.23759973  0.21146778  1
  C  C272  1  0.32410082  0.33633046  0.22111188  1
  N  N273  1  0.47083237  0.21671609  0.22527209  1
  C  C274  1  0.37987717  0.30350892  0.39718445  1
  C  C275  1  0.40368780  0.08438611  0.04384009  1
  C  C276  1  0.46779311  0.35624654  0.40468888  1
  H  H277  1  0.27010072  0.42342049  0.10071409  1
  H  H278  1  0.35448743  0.24534150  0.02648905  1
  Zn  Zn279  1  0.25905516  0.10451342  0.04960967  1
  N  N280  1  0.34466087  0.32035039  0.15619204  1
  N  N281  1  0.32625367  0.38836975  0.00609414  1
  H  H282  1  0.29106560  0.27539885  0.31606688  1
  N  N283  1  0.44140967  0.33146233  0.05902036  1
  N  N284  1  0.40562797  0.44792819  0.14021559  1
  C  C285  1  0.33806431  0.25924136  0.15016683  1
  Zn  Zn286  1  0.37871792  0.37150414  0.08295580  1
  C  C287  1  0.43339554  0.21550006  0.24477755  1
  N  N288  1  0.32608802  0.09008163  0.06478784  1
  C  C289  1  0.32820849  0.07149769  0.20850039  1
  C  C290  1  0.38569584  0.47483127  0.18493684  1
  H  H291  1  0.28398647  0.32732650  0.43568327  1
  C  C292  1  0.28300284  0.44767355  0.33568620  1
  Zn  Zn293  1  0.46241515  0.39123303  0.14874383  1
  N  N294  1  0.45219416  0.37374154  0.26720789  1
  C  C295  1  0.35543898  0.22142633  0.08009927  1
  H  H296  1  0.43116411  0.16704423  0.41375601  1
  H  H297  1  0.31863833  0.02358941  0.21991168  1
  H  H298  1  0.29785039  0.10336440  0.21570887  1
  C  C299  1  0.34919457  0.07491623  0.12941150  1
  H  H300  1  0.41737228  0.36202784  0.27328792  1
  C  C301  1  0.27287825  0.36550072  0.39807162  1
  C  C302  1  0.42244419  0.32823553  0.41267261  1
  H  H303  1  0.39716745  0.21378969  0.26119743  1
  H  H304  1  0.36893915  0.19404420  0.41893396  1
  C  C305  1  0.39957182  0.17761112  0.44855603  1
  H  H306  1  0.41852725  0.05986426  0.15228238  1
  H  H307  1  0.28976748  0.30831950  0.02816318  1
  C  C308  1  0.35925127  0.09763789  0.01291328  1
  H  H309  1  0.49206903  0.02380802  0.44655667  1
  H  H310  1  0.43965669  0.08503640  0.02258837  1
  N  N311  1  0.25898923  0.46145682  0.12691444  1
  C  C312  1  0.47776162  0.37281256  0.31796058  1
  H  H313  1  0.35734438  0.30406475  0.34666853  1
  H  H314  1  0.39674298  0.48400446  0.24373757  1
  H  H315  1  0.47608174  0.20841235  0.16887777  1
  H  H316  1  0.47129411  0.39621134  0.44541296  1
  H  H317  1  0.43048230  0.01689405  0.48681664  1
  C  C318  1  0.42634994  0.49944413  0.36829414  1
  H  H319  1  0.49609260  0.32524298  0.42264879  1
  C  C320  1  0.37607136  0.04458334  0.66335530  1
  H  H321  1  0.42929521  0.43494839  0.84183714  1
  C  C322  1  0.26824256  0.25830435  0.89534586  1
  C  C323  1  0.34727909  0.07604057  0.72785027  1
  Zn  Zn324  1  0.34069413  0.20349848  0.65639725  1
  H  H325  1  0.31976033  0.18574572  0.92972318  1
  N  N326  1  0.27726683  0.11880253  0.57409726  1
  H  H327  1  0.28588353  0.29470593  0.86868914  1
  H  H328  1  0.26560107  0.00560527  0.66805614  1
  C  C329  1  0.25642916  0.37977847  0.94828672  1
  N  N330  1  0.39523862  0.17318844  0.59466303  1
  C  C331  1  0.34204844  0.43505694  0.62107233  1
  H  H332  1  0.33616658  0.22637927  0.83723055  1
  H  H333  1  0.42158751  0.16931950  0.67743951  1
  H  H334  1  0.45764014  0.42432852  0.99695007  1
  N  N335  1  0.41783490  0.32271172  0.79415401  1
  N  N336  1  0.37212051  0.25335021  0.73498723  1
  C  C337  1  0.25626360  0.33569924  0.55523994  1
  C  C338  1  0.30052204  0.35415557  0.74966605  1
  H  H339  1  0.28257893  0.04363995  0.87091756  1
  C  C340  1  0.30210336  0.06885365  0.82470550  1
  N  N341  1  0.25125815  0.17985006  0.97289969  1
  C  C342  1  0.29773277  0.30475414  0.56993861  1
  H  H343  1  0.30498739  0.42346412  0.61191352  1
  C  C344  1  0.46139292  0.44798267  0.86974437  1
  C  C345  1  0.36743784  0.44304350  0.68917276  1
  H  H346  1  0.39163744  0.31055329  0.90855554  1
  H  H347  1  0.41831936  0.29326093  0.59905086  1
  H  H348  1  0.34958141  0.00488408  0.96943418  1
  H  H349  1  0.35672099  0.11133586  0.95297728  1
  C  C350  1  0.47932912  0.12240760  0.61743886  1
  C  C351  1  0.29467604  0.12617590  0.78686327  1
  N  N352  1  0.32538614  0.12964816  0.73103326  1
  N  N353  1  0.27680931  0.42988957  0.92629031  1
  H  H354  1  0.35710668  0.42750064  0.74564298  1
  N  N355  1  0.37110575  0.45062792  0.56659854  1
  C  C356  1  0.36259214  0.25480480  0.81005151  1
  N  N357  1  0.33285321  0.03913690  0.78601892  1
  H  H358  1  0.27081092  0.16188991  0.80386985  1
  C  C359  1  0.41099183  0.47033910  0.59628170  1
  C  C360  1  0.28442802  0.20336327  0.93037654  1
  C  C361  1  0.39155895  0.29596513  0.84733898  1
  H  H362  1  0.36980427  0.06520284  0.60640459  1
  N  N363  1  0.29111047  0.26188293  0.62399237  1
  N  N364  1  0.49706601  0.47309906  0.83944816  1
  H  H365  1  0.47019490  0.29291383  0.65684286  1
  C  C366  1  0.40762142  0.29447687  0.72648089  1
  H  H367  1  0.43448545  0.36212512  0.64608519  1
  C  C368  1  0.25730790  0.37923551  0.74141314  1
  C  C369  1  0.43327852  0.31194098  0.65426200  1
  H  H370  1  0.30894331  0.30728756  0.73232933  1
  N  N371  1  0.40959253  0.46437648  0.67335761  1
  H  H372  1  0.44887213  0.00641510  0.94758529  1
  C  C373  1  0.31686202  0.43845112  0.96362373  1
  H  H374  1  0.48511093  0.48558265  0.56682336  1
  H  H375  1  0.41367966  0.04381596  0.67459764  1
  C  C376  1  0.40205617  0.17485663  0.52239387  1
  H  H377  1  0.30138427  0.12534440  0.62086981  1
  H  H378  1  0.32292034  0.37120628  0.79086944  1
  C  C379  1  0.43479002  0.15173348  0.62161213  1
  H  H380  1  0.49411554  0.13267217  0.72968606  1
  H  H381  1  0.48388885  0.20192316  0.51411227  1
  H  H382  1  0.33251216  0.30711518  0.53990892  1
  H  H383  1  0.49400180  0.10695922  0.56351350  1
  C  C384  1  0.28967505  0.35227131  0.99793634  1
  C  C385  1  0.47509806  0.44438303  0.94601074  1
  H  H386  1  0.47008345  0.26359153  0.98026546  1
  H  H387  1  0.49107636  0.06488917  0.93342260  1
  C  C388  1  0.48615356  0.01826176  0.95575166  1
  C  C389  1  0.25065416  0.06648385  0.56569588  1
  C  C390  1  0.26002108  0.00382479  0.60473404  1
  H  H391  1  0.37672674  0.49880257  0.92619148  1
  C  C392  1  0.34716656  0.49795630  0.96694484  1
  C  C393  1  0.26563434  0.15706528  0.52053379  1
  H  H394  1  0.27798160  0.20372234  0.51601549  1
  H  H395  1  0.41152776  0.96975648  0.07923831  1
  C  C396  1  0.26584405  0.81515821  0.03443809  1
  H  H397  1  0.31739781  0.62275984  0.03593727  1
  H  H398  1  0.35384508  0.72435107  0.32009109  1
  H  H399  1  0.32670533  0.87536583  0.30175305  1
  C  C400  1  0.37584848  0.73670673  0.37076611  1
  H  H401  1  0.32369539  0.62311138  0.45369884  1
  C  C402  1  0.38252846  0.62781819  0.22426322  1
  H  H403  1  0.29001755  0.54720944  0.33619437  1
  C  C404  1  0.27792121  0.51332338  0.11472500  1
  C  C405  1  0.44348243  0.54551609  0.10129413  1
  N  N406  1  0.38970368  0.50490748  0.41309909  1
  H  H407  1  0.35566410  0.58622831  0.10232950  1
  N  N408  1  0.26357224  0.69675584  0.38430840  1
  H  H409  1  0.36696088  0.50686081  0.01923661  1
  N  N410  1  0.42442795  0.72638282  0.18170779  1
  H  H411  1  0.44250225  0.50571421  0.49090593  1
  C  C412  1  0.33609399  0.78404842  0.05187009  1
  N  N413  1  0.29726993  0.81180295  0.25025363  1
  Zn  Zn414  1  0.45345077  0.82610169  0.46363121  1
  H  H415  1  0.34999874  0.63032259  0.25240323  1
  H  H416  1  0.37177736  0.77837039  0.23993545  1
  H  H417  1  0.36544216  0.76244679  0.07992010  1
  H  H418  1  0.34483064  0.50926402  0.32734112  1
  C  C419  1  0.42078411  0.82743250  0.15851348  1
  H  H420  1  0.46663732  0.84298165  0.31703245  1
  C  C421  1  0.44177529  0.56028880  0.34904767  1
  H  H422  1  0.40226521  0.58361670  0.21549102  1
  C  C423  1  0.40136774  0.68088894  0.20547779  1
  Zn  Zn424  1  0.27713794  0.74802621  0.18299105  1
  C  C425  1  0.40487769  0.50177582  0.11537871  1
  H  H426  1  0.47866906  0.52094141  0.11337725  1
  N  N427  1  0.29437560  0.78494697  0.08290152  1
  C  C428  1  0.46296737  0.99420478  0.46547855  1
  H  H429  1  0.30735663  0.51010522  0.07454850  1
  H  H430  1  0.34190282  0.86261612  0.19457428  1
  H  H431  1  0.30613777  0.98930745  0.08010503  1
  H  H432  1  0.34868450  0.66941918  0.10042915  1
  C  C433  1  0.26750373  0.56197494  0.16195681  1
  Zn  Zn434  1  0.48105680  0.73604618  0.10910254  1
  N  N435  1  0.45353152  0.81772823  0.11335359  1
  H  H436  1  0.37662591  0.70062180  0.41605451  1
  C  C437  1  0.36068100  0.88274808  0.46745786  1
  N  N438  1  0.31373901  0.81702689  0.40070261  1
  C  C439  1  0.35914811  0.79746732  0.40160927  1
  C  C440  1  0.32260654  0.85323574  0.24608392  1
  C  C441  1  0.31453767  0.86690237  0.44432387  1
  H  H442  1  0.40872163  0.87543023  0.15391421  1
  H  H443  1  0.41068058  0.74075809  0.34735403  1
  N  N444  1  0.38588259  0.83856816  0.43970497  1
  C  C445  1  0.32999868  0.62554588  0.09542565  1
  N  N446  1  0.41449039  0.59928829  0.38552299  1
  C  C447  1  0.29048408  0.61886514  0.15598273  1
  C  C448  1  0.38191051  0.56610119  0.42245172  1
  H  H449  1  0.28228966  0.89435864  0.45369386  1
  C  C450  1  0.25960141  0.67547522  0.45050499  1
  C  C451  1  0.40184633  0.77813022  0.20118308  1
  H  H452  1  0.44062066  0.58506618  0.13753492  1
  H  H453  1  0.49336270  0.91464387  0.30437802  1
  N  N454  1  0.27995942  0.66090977  0.20204582  1
  C  C455  1  0.34866909  0.59175281  0.48160208  1
  Zn  Zn456  1  0.48461090  0.87138132  0.04205730  1
  H  H457  1  0.47097422  0.57754553  0.31510232  1
  Zn  Zn458  1  0.25489804  0.77985813  0.34223167  1
  N  N459  1  0.46917349  0.93820326  0.45878101  1
  C  C460  1  0.28812204  0.95371004  0.04830243  1
  H  H461  1  0.31464587  0.92071873  0.02231563  1
  H  H462  1  0.26772332  0.92552513  0.08677370  1
  C  C463  1  0.44391941  0.57086522  0.01745551  1
  C  C464  1  0.30763029  0.50825544  0.30975767  1
  H  H465  1  0.30531216  0.51214989  0.24992450  1
  C  C466  1  0.40918652  0.95214363  0.02210877  1
  C  C467  1  0.47903133  0.61998027  0.00338499  1
  H  H468  1  0.48984412  0.62845731  0.44630418  1
  N  N469  1  0.49245004  0.67504846  0.02473188  1
  H  H470  1  0.45272787  0.95210291  0.63906584  1
  C  C471  1  0.31189081  0.70933588  0.68950036  1
  C  C472  1  0.44912624  0.77801488  0.72279952  1
  C  C473  1  0.41490406  0.66944463  0.86682391  1
  H  H474  1  0.42404689  0.83295593  0.83258606  1
  C  C475  1  0.44453656  0.63264768  0.82256065  1
  H  H476  1  0.26849741  0.69768572  0.56784970  1
  N  N477  1  0.28370090  0.65542449  0.69513425  1
  H  H478  1  0.30736153  0.74103794  0.73553871  1
  H  H479  1  0.41717244  0.80821564  0.72212193  1
  Zn  Zn480  1  0.49604536  0.62937269  0.67438763  1
  H  H481  1  0.45360742  0.89745908  0.79624082  1
  C  C482  1  0.44930129  0.50455833  0.55350555  1
  H  H483  1  0.31774969  0.72813114  0.63275928  1
  N  N484  1  0.41185255  0.72353209  0.83353491  1
  N  N485  1  0.43384047  0.90944328  0.98813018  1
  Zn  Zn486  1  0.26210286  0.87325907  0.88702990  1
  C  C487  1  0.42437662  0.90789129  0.91279431  1
  H  H488  1  0.39175533  0.66074467  0.91442172  1
  H  H489  1  0.49349499  0.52728708  0.70505284  1
  H  H490  1  0.37508220  0.77690128  0.56961338  1
  H  H491  1  0.47943980  0.85132676  0.87127943  1
  H  H492  1  0.43432659  0.90241675  0.55728200  1
  H  H493  1  0.38983385  0.59687788  0.73064178  1
  N  N494  1  0.45038572  0.66403466  0.59155753  1
  C  C495  1  0.25600023  0.98195730  0.98453840  1
  H  H496  1  0.31319087  0.67549369  0.83693976  1
  H  H497  1  0.44864779  0.55161795  0.56889852  1
  C  C498  1  0.30263876  0.72339445  0.86056073  1
  N  N499  1  0.29895493  0.88418063  0.79426053  1
  H  H500  1  0.47979062  0.80593077  0.74128094  1
  H  H501  1  0.35894554  0.82863085  0.93858116  1
  C  C502  1  0.32894750  0.55639782  0.78772612  1
  C  C503  1  0.29456999  0.85064569  0.73603229  1
  N  N504  1  0.28495914  0.55394435  0.80324015  1
  N  N505  1  0.35885885  0.90054109  0.70259714  1
  C  C506  1  0.46451724  0.69454659  0.52900084  1
  C  C507  1  0.35299837  0.60004583  0.74213948  1
  C  C508  1  0.32826689  0.86090805  0.67488602  1
  H  H509  1  0.29130886  0.98332686  0.58263882  1
  N  N510  1  0.38705522  0.94536419  0.89779819  1
  Zn  Zn511  1  0.34890370  0.95082818  0.79737614  1
  H  H512  1  0.26343248  0.82183397  0.73921500  1
  C  C513  1  0.44139760  0.72179219  0.77163813  1
  C  C514  1  0.39251309  0.90417398  0.65613880  1
  H  H515  1  0.32912481  0.83845163  0.61789588  1
  H  H516  1  0.30956319  0.72232628  0.92416467  1
  H  H517  1  0.45758303  0.76548422  0.66432214  1
  C  C518  1  0.37929768  0.97314702  0.96361509  1
  N  N519  1  0.45870495  0.66504758  0.76341451  1
  C  C520  1  0.41116861  0.69003846  0.61444657  1
  H  H521  1  0.39205379  0.67843448  0.66679530  1
  C  C522  1  0.44664507  0.87036062  0.84954314  1
  C  C523  1  0.32834804  0.64534484  0.70517602  1
  C  C524  1  0.42921640  0.91901149  0.61563005  1
  N  N525  1  0.28932613  0.83261431  0.97115728  1
  H  H526  1  0.45635097  0.58545727  0.83299440  1
  C  C527  1  0.40187095  0.73955783  0.56576819  1
  H  H528  1  0.36353585  0.99784716  0.65378568  1
  H  H529  1  0.32529950  0.75833057  0.83733806  1
  H  H530  1  0.34477626  0.51446257  0.81113700  1
  H  H531  1  0.45156026  0.53385928  0.97984110  1
  H  H532  1  0.33114434  0.55184207  0.50671933  1
  C  C533  1  0.25209098  0.74149231  0.84825847  1
  H  H534  1  0.47407209  0.74583926  0.96191063  1
  H  H535  1  0.32767811  0.54137094  0.95467167  1
  C  C536  1  0.28058552  0.71477805  0.51444654  1
  C  C537  1  0.49982922  0.75093676  0.91124653  1
  H  H538  1  0.31879142  0.71185587  0.51189444  1
  N  N539  1  0.43631217  0.74411855  0.51704156  1
  H  H540  1  0.37467991  0.92248998  0.50011545  1
  H  H541  1  0.48100240  0.76422768  0.85960661  1
  C  C542  1  0.33319581  0.81451742  0.97979016  1
  H  H543  1  0.36485381  0.61888989  0.52844906  1
  H  H544  1  0.40854528  0.58998430  0.99906594  1
  H  H545  1  0.27097673  0.76584492  0.50652825  1
  H  H546  1  0.60995827  0.13585515  0.29255479  1
  C  C547  1  0.69214615  0.45872914  0.38626885  1
  H  H548  1  0.69087718  0.06533282  0.02981757  1
  N  N549  1  0.53080295  0.39362161  0.12865698  1
  C  C550  1  0.61032124  0.24320540  0.29249436  1
  H  H551  1  0.51353856  0.37925357  0.30326060  1
  Zn  Zn552  1  0.53975189  0.23046924  0.31453168  1
  C  C553  1  0.69545298  0.27183955  0.09465016  1
  C  C554  1  0.66686221  0.12670496  0.20364071  1
  H  H555  1  0.54705923  0.17110432  0.07797517  1
  H  H556  1  0.65056764  0.34262362  0.29356952  1
  H  H557  1  0.63415613  0.21615480  0.16139926  1
  C  C558  1  0.50073675  0.00936794  0.03699574  1
  H  H559  1  0.55724579  0.12945707  0.35647063  1
  C  C560  1  0.55428437  0.35786975  0.15728419  1
  C  C561  1  0.62871342  0.07278088  0.12043906  1
  H  H562  1  0.67276562  0.24137119  0.06042195  1
  N  N563  1  0.65716374  0.07083690  0.18136670  1
  H  H564  1  0.67501207  0.37422838  0.08516553  1
  C  C565  1  0.63491661  0.39860534  0.40424912  1
  H  H566  1  0.62462669  0.32902912  0.16009061  1
  C  C567  1  0.58704019  0.27634748  0.24066579  1
  N  N568  1  0.69230906  0.41838164  0.32587980  1
  H  H569  1  0.54238910  0.06349557  0.19005306  1
  H  H570  1  0.68980492  0.13603772  0.25217836  1
  N  N571  1  0.61846858  0.13315110  0.10578180  1
  C  C572  1  0.58641095  0.10778673  0.32790652  1
  N  N573  1  0.72075960  0.34162463  0.17049229  1
  H  H574  1  0.67859642  0.23795976  0.27594762  1
  N  N575  1  0.65586354  0.23835616  0.31810335  1
  C  C576  1  0.59011517  0.32276475  0.18429441  1
  H  H577  1  0.66698447  0.49574091  0.04436820  1
  H  H578  1  0.62032253  0.13196397  0.45398087  1
  N  N579  1  0.65524006  0.44836152  0.43187200  1
  C  C580  1  0.69413522  0.33516597  0.11061758  1
  C  C581  1  0.72230708  0.02255467  0.36053047  1
  C  C582  1  0.66090613  0.45225974  0.01597623  1
  N  N583  1  0.61984856  0.43046311  0.01010131  1
  Zn  Zn584  1  0.56128817  0.46123002  0.06174592  1
  H  H585  1  0.60002998  0.38245050  0.42136673  1
  C  C586  1  0.65837822  0.37944248  0.33660486  1
  C  C587  1  0.64170730  0.16627085  0.15580915  1
  H  H588  1  0.66113584  0.20694523  0.35597556  1
  C  C589  1  0.58639672  0.04866879  0.32109079  1
  C  C590  1  0.55570384  0.16377673  0.48805181  1
  C  C591  1  0.74077285  0.28885839  0.18940197  1
  Zn  Zn592  1  0.73027094  0.42066143  0.23242575  1
  H  H593  1  0.68921417  0.03370373  0.38841130  1
  C  C594  1  0.52364694  0.03492205  0.14789722  1
  C  C595  1  0.59287238  0.13231960  0.49510533  1
  N  N596  1  0.72302380  0.24389622  0.14425011  1
  H  H597  1  0.52817112  0.24958400  0.05624229  1
  N  N598  1  0.51373599  0.05842649  0.08090216  1
  H  H599  1  0.58150214  0.02464537  0.04087051  1
  C  C600  1  0.55232076  0.21361668  0.04456722  1
  C  C601  1  0.72320606  0.04527342  0.05075670  1
  N  N602  1  0.50213697  0.21775422  0.40796360  1
  N  N603  1  0.73959664  0.47817409  0.14032319  1
  C  C604  1  0.51487310  0.19866676  0.47519568  1
  N  N605  1  0.72743499  0.00020706  0.29204920  1
  H  H606  1  0.73399068  0.07273142  0.10100775  1
  C  C607  1  0.61073545  0.01555769  0.07915340  1
  H  H608  1  0.74789476  0.28026792  0.31625509  1
  H  H609  1  0.74997763  0.05065378  0.00622376  1
  H  H610  1  0.73236347  0.17910239  0.00818241  1
  H  H611  1  0.56743018  0.31610655  0.99674064  1
  H  H612  1  0.74883980  0.06981376  0.59526117  1
  C  C613  1  0.72621405  0.07272490  0.82230481  1
  H  H614  1  0.59850838  0.14527877  0.84253144  1
  N  N615  1  0.60091759  0.16252036  0.67617706  1
  C  C616  1  0.62166082  0.37833174  0.96633854  1
  C  C617  1  0.62245846  0.00471697  0.60466867  1
  C  C618  1  0.57999790  0.33935409  0.94414799  1
  N  N619  1  0.51844286  0.46789596  0.95824425  1
  C  C620  1  0.66618643  0.02788006  0.64403713  1
  Zn  Zn621  1  0.56282900  0.08548569  0.69536590  1
  C  C622  1  0.53220946  0.48437315  0.88939432  1
  N  N623  1  0.71245888  0.28419703  0.77792890  1
  N  N624  1  0.64832225  0.22500987  0.88562429  1
  H  H625  1  0.54948536  0.37070880  0.93027586  1
  H  H626  1  0.74489914  0.45993190  0.52271506  1
  N  N627  1  0.66536886  0.37326366  0.93858425  1
  C  C628  1  0.61647599  0.21859134  0.93741502  1
  H  H629  1  0.70512596  0.14556455  0.75552815  1
  H  H630  1  0.53410680  0.41907398  0.65321772  1
  N  N631  1  0.59851789  0.00509282  0.89970835  1
  C  C632  1  0.70832533  0.48461816  0.62397995  1
  C  C633  1  0.73941929  0.24312338  0.67665413  1
  C  C634  1  0.73191500  0.43640600  0.57499413  1
  H  H635  1  0.59073396  0.29007818  0.58276185  1
  N  N636  1  0.59020091  0.44065214  0.57585584  1
  Zn  Zn637  1  0.69360358  0.29748899  0.88217779  1
  C  C638  1  0.74189613  0.24147494  0.75606779  1
  H  H639  1  0.67544096  0.40830202  0.71526699  1
  N  N640  1  0.57719329  0.05864752  0.79836933  1
  H  H641  1  0.67169255  0.19075869  0.87711387  1
  H  H642  1  0.58432253  0.30283676  0.90069164  1
  C  C643  1  0.60630230  0.32785406  0.55274469  1
  H  H644  1  0.64180414  0.36282646  0.77685199  1
  C  C645  1  0.55576641  0.45559210  0.62413387  1
  N  N646  1  0.70887420  0.28606110  0.65306747  1
  C  C647  1  0.62192665  0.19283667  0.71665064  1
  C  C648  1  0.69072884  0.31026044  0.71594500  1
  H  H649  1  0.62640469  0.35826093  0.68107886  1
  N  N650  1  0.57891991  0.02343350  0.61758781  1
  H  H651  1  0.59770433  0.17794509  0.62100702  1
  H  H652  1  0.64389850  0.22447273  0.74828004  1
  C  C653  1  0.59332174  0.09701070  0.85186068  1
  N  N654  1  0.50309319  0.11817632  0.67668272  1
  H  H655  1  0.72700148  0.42113223  0.95723422  1
  C  C656  1  0.59354021  0.38220666  0.57375066  1
  C  C657  1  0.65678392  0.36278095  0.72043449  1
  C  C658  1  0.69010123  0.41797330  0.96387997  1
  H  H659  1  0.70544742  0.40273219  0.54836901  1
  C  C660  1  0.69656149  0.10174088  0.78499502  1
  H  H661  1  0.66125236  0.08273383  0.77316210  1
  C  C662  1  0.60596806  0.06335584  0.91700595  1
  Zn  Zn663  1  0.62964504  0.49621880  0.51622630  1
  H  H664  1  0.74071099  0.16131859  0.90292846  1
  C  C665  1  0.57857381  0.00252357  0.83005662  1
  H  H666  1  0.62318729  0.07943793  0.96843140  1
  C  C667  1  0.58455068  0.21559583  0.98985498  1
  H  H668  1  0.65820102  0.02906346  0.70581236  1
  H  H669  1  0.67698188  0.07277491  0.62132322  1
  H  H670  1  0.59978078  0.10098959  0.54482217  1
  C  C671  1  0.58346568  0.49571561  0.86809166  1
  H  H672  1  0.50129895  0.47670105  0.78233289  1
  H  H673  1  0.59201541  0.48019233  0.81368272  1
  H  H674  1  0.60785795  0.46538332  0.89872026  1
  H  H675  1  0.63664476  0.32135908  0.51678882  1
  N  N676  1  0.59983412  0.82062673  0.19967906  1
  H  H677  1  0.57228239  0.75931144  0.32763619  1
  C  C678  1  0.60599192  0.82595841  0.12450671  1
  H  H679  1  0.61925796  0.71206742  0.13575414  1
  C  C680  1  0.72683382  0.51114023  0.39101927  1
  H  H681  1  0.70660813  0.90757171  0.40345741  1
  C  C682  1  0.64141946  0.67476050  0.11475465  1
  C  C683  1  0.56629525  0.77517664  0.20496184  1
  C  C684  1  0.59252963  0.58542766  0.14869738  1
  C  C685  1  0.50092680  0.86564005  0.30601139  1
  H  H686  1  0.51430345  0.60489936  0.14613394  1
  N  N687  1  0.54923157  0.75852146  0.13518884  1
  C  C688  1  0.57799428  0.78468991  0.08521644  1
  N  N689  1  0.56994806  0.53132272  0.14063902  1
  C  C690  1  0.53668562  0.85097611  0.36853035  1
  H  H691  1  0.63195723  0.85882626  0.10058231  1
  H  H692  1  0.59151677  0.56507663  0.27836814  1
  C  C693  1  0.52468883  0.63948865  0.00109875  1
  H  H694  1  0.68599716  0.85636940  0.16194762  1
  Zn  Zn695  1  0.67363317  0.98781113  0.22654789  1
  H  H696  1  0.63462106  0.51945485  0.31363933  1
  N  N697  1  0.70143443  0.94807505  0.12865638  1
  H  H698  1  0.50923440  0.85221114  0.24489381  1
  H  H699  1  0.74402212  0.57756706  0.24361522  1
  H  H700  1  0.56248344  0.95605911  0.34744498  1
  C  C701  1  0.60203925  0.54284707  0.33163537  1
  H  H702  1  0.50354281  0.93227915  0.44488779  1
  H  H703  1  0.51860150  0.73109853  0.28069919  1
  C  C704  1  0.55754895  0.73828316  0.27477490  1
  C  C705  1  0.71537089  0.57972671  0.20143074  1
  N  N706  1  0.67751741  0.69361020  0.07575426  1
  H  H707  1  0.73931181  0.51657969  0.45013585  1
  C  C708  1  0.60546438  0.58813092  0.39595803  1
  C  C709  1  0.71518433  0.87690560  0.04056060  1
  N  N710  1  0.60066117  0.64983843  0.38517147  1
  H  H711  1  0.62972604  0.82138259  0.45991214  1
  C  C712  1  0.71310262  0.78268919  0.31216721  1
  N  N713  1  0.50286080  0.95800805  0.07986415  1
  N  N714  1  0.58439378  0.84731243  0.37161213  1
  C  C715  1  0.63546308  0.61320564  0.12256294  1
  C  C716  1  0.59524328  0.83021089  0.43940740  1
  H  H717  1  0.56108352  0.61608517  0.00155665  1
  C  C718  1  0.55293911  0.81992335  0.48214947  1
  C  C719  1  0.71885304  0.86593051  0.37664589  1
  N  N720  1  0.62159233  0.95607984  0.28557860  1
  Zn  Zn721  1  0.62962969  0.86692921  0.28728566  1
  C  C722  1  0.51777968  0.97068839  0.14869746  1
  H  H723  1  0.69015305  0.73550461  0.07260170  1
  C  C724  1  0.69961656  0.73625606  0.25180247  1
  N  N725  1  0.69270795  0.83668352  0.32599980  1
  C  C726  1  0.50095598  0.67189660  0.47299034  1
  C  C727  1  0.54645886  0.57716683  0.16159416  1
  H  H728  1  0.66509391  0.58483995  0.10945194  1
  H  H729  1  0.69188966  0.69027958  0.27106214  1
  H  H730  1  0.68379584  0.55986099  0.22749132  1
  Zn  Zn731  1  0.72910407  0.64632737  0.03005768  1
  H  H732  1  0.67053766  0.74917235  0.21567317  1
  H  H733  1  0.73140643  0.73009531  0.21273815  1
  C  C734  1  0.71875180  0.97539437  0.06671795  1
  N  N735  1  0.52007779  0.83524300  0.43663580  1
  C  C736  1  0.70061522  0.88868841  0.11695744  1
  C  C737  1  0.60532828  0.67638929  0.45095358  1
  H  H738  1  0.51027958  0.70351078  0.42746204  1
  H  H739  1  0.59551128  0.72605739  0.45630835  1
  C  C740  1  0.73114659  0.53880604  0.13787594  1
  H  H741  1  0.70915135  0.62580133  0.18596564  1
  H  H742  1  0.57231156  0.69155590  0.27503575  1
  C  C743  1  0.58713715  0.98371429  0.31565137  1
  N  N744  1  0.61385663  0.57577887  0.47026896  1
  H  H745  1  0.71316627  0.55795559  0.37766919  1
  H  H746  1  0.57471105  0.78286267  0.02518141  1
  H  H747  1  0.59788895  0.97740967  0.11666099  1
  H  H748  1  0.57128843  0.91956553  0.48117183  1
  N  N749  1  0.72249783  0.93073753  0.01299486  1
  H  H750  1  0.57765264  0.50358395  0.34360521  1
  H  H751  1  0.52839054  0.93807106  0.19316076  1
  H  H752  1  0.63655009  0.99327490  0.04199470  1
  H  H753  1  0.69572579  0.75566023  0.44852541  1
  N  N754  1  0.73925307  0.56055101  0.06495225  1
  C  C755  1  0.74992650  0.51450768  0.01969483  1
  H  H756  1  0.68738442  0.68220944  0.48185021  1
  H  H757  1  0.72136151  0.83312723  0.00707099  1
  N  N758  1  0.62809437  0.71518908  0.66598103  1
  Zn  Zn759  1  0.69792213  0.73385995  0.69565624  1
  C  C760  1  0.59650340  0.67829433  0.70039735  1
  N  N761  1  0.71528501  0.67768807  0.78305572  1
  H  H762  1  0.69861658  0.56079432  0.77482104  1
  H  H763  1  0.63493506  0.86625721  0.88892590  1
  C  C764  1  0.60334821  0.63169081  0.76487042  1
  N  N765  1  0.66960731  0.51681351  0.60610846  1
  H  H766  1  0.58421010  0.64397223  0.81623066  1
  H  H767  1  0.68183167  0.77318823  0.88998175  1
  H  H768  1  0.62391300  0.77560722  0.56845511  1
  H  H769  1  0.63997365  0.62876608  0.78321872  1
  C  C770  1  0.60696965  0.74177758  0.60911472  1
  C  C771  1  0.61318101  0.62929901  0.50568745  1
  H  H772  1  0.59277055  0.58542763  0.74658041  1
  N  N773  1  0.55449232  0.68632337  0.66881396  1
  C  C774  1  0.70369724  0.68261333  0.85514994  1
  H  H775  1  0.63586057  0.73199899  0.84518692  1
  C  C776  1  0.69384658  0.54382783  0.71808269  1
  N  N777  1  0.72349022  0.50257238  0.69331224  1
  N  N778  1  0.62202512  0.96009693  0.54824230  1
  H  H779  1  0.65787870  0.95150691  0.79346688  1
  N  N780  1  0.53244797  0.85301617  0.96607150  1
  H  H781  1  0.63066419  0.58538687  0.66127397  1
  C  C782  1  0.67684354  0.90927470  0.78527794  1
  H  H783  1  0.57966308  0.93046611  0.99315916  1
  H  H784  1  0.56751988  0.55239945  0.58739263  1
  N  N785  1  0.71311630  0.89386790  0.83072392  1
  C  C786  1  0.53577390  0.80368714  0.92473089  1
  C  C787  1  0.60100830  0.85197453  0.91548770  1
  N  N788  1  0.73036186  0.64627983  0.90369985  1
  H  H789  1  0.61926066  0.63517957  0.56775138  1
  H  H790  1  0.56866567  0.94371616  0.72877984  1
  C  C791  1  0.66961965  0.86315459  0.73310357  1
  C  C792  1  0.54877260  0.51897686  0.62433877  1
  C  C793  1  0.74964402  0.63500564  0.78466526  1
  C  C794  1  0.66624491  0.72806692  0.88291395  1
  N  N795  1  0.51781157  0.54277041  0.66701878  1
  C  C796  1  0.57907270  0.94985162  0.53048746  1
  H  H797  1  0.59455199  0.54378089  0.87489873  1
  C  C798  1  0.74425309  0.73192182  0.54096616  1
  H  H799  1  0.74422839  0.62597633  0.51794535  1
  H  H800  1  0.58777919  0.90456841  0.81248064  1
  H  H801  1  0.53467597  0.66401944  0.50312288  1
  H  H802  1  0.55030151  0.80794070  0.54355861  1
  C  C803  1  0.56602713  0.94340220  0.78973446  1
  H  H804  1  0.52850286  0.92961179  0.79859701  1
  C  C805  1  0.65982831  0.55432095  0.66158105  1
  N  N806  1  0.70000613  0.81835751  0.74551899  1
  H  H807  1  0.64427093  0.85662203  0.68701252  1
  C  C808  1  0.72565473  0.83734873  0.80924916  1
  H  H809  1  0.50495068  0.98699690  0.91809970  1
  C  C810  1  0.55124979  0.99129237  0.57230031  1
  H  H811  1  0.51539090  0.70637894  0.90347030  1
  C  C812  1  0.55880404  0.72835628  0.61509201  1
  N  N813  1  0.57814081  0.80397931  0.88975263  1
  Zn  Zn814  1  0.74266739  0.94984737  0.91089266  1
  H  H815  1  0.65521607  0.71393885  0.94053333  1
  C  C816  1  0.57271593  0.88548675  0.96441122  1
  H  H817  1  0.53144580  0.73440463  0.57240880  1
  H  H818  1  0.51449855  0.99898151  0.57245830  1
  H  H819  1  0.66909953  0.74609281  0.53709695  1
  H  H820  1  0.69707085  0.99919429  0.63136198  1
  C  C821  1  0.69673530  0.72925002  0.50049590  1
  N  N822  1  0.84994080  0.10236594  0.24079300  1
  C  C823  1  0.92755281  0.13920824  0.19197761  1
  N  N824  1  0.84534929  0.15952623  0.13851361  1
  C  C825  1  0.80317925  0.15341554  0.16129775  1
  C  C826  1  0.87481713  0.12963614  0.18871788  1
  C  C827  1  0.80540461  0.11745096  0.22851459  1
  C  C828  1  0.97379828  0.00709283  0.16017098  1
  H  H829  1  0.99363593  0.42386001  0.30110180  1
  H  H830  1  0.79454051  0.00629030  0.15248709  1
  H  H831  1  0.96238049  0.04159161  0.40007922  1
  H  H832  1  0.94445902  0.12006287  0.24377195  1
  C  C833  1  0.98825240  0.05715955  0.35781798  1
  N  N834  1  0.90993261  0.20992799  0.39089591  1
  H  H835  1  0.93891470  0.29625979  0.16996319  1
  H  H836  1  0.78521994  0.23253882  0.26171131  1
  C  C837  1  0.97035671  0.24045445  0.07260226  1
  H  H838  1  0.81736547  0.33633198  0.40807544  1
  H  H839  1  0.94370823  0.11847078  0.14172761  1
  N  N840  1  0.88698652  0.44108701  0.03336998  1
  H  H841  1  0.81765450  0.47969667  0.17460447  1
  C  C842  1  0.76924833  0.27680936  0.26321548  1
  H  H843  1  0.85268293  0.39255903  0.11368829  1
  C  C844  1  0.83088474  0.46265673  0.23183213  1
  C  C845  1  0.97407979  0.03244926  0.27808607  1
  C  C846  1  0.92638151  0.41882534  0.14013502  1
  C  C847  1  0.98542701  0.38507347  0.26191225  1
  H  H848  1  0.93713001  0.18964548  0.18864104  1
  H  H849  1  0.91070046  0.47135142  0.25137355  1
  N  N850  1  0.96717976  0.44142504  0.13378607  1
  Zn  Zn851  1  0.91411089  0.40358145  0.41076009  1
  C  C852  1  0.81570009  0.23626781  0.46922759  1
  H  H853  1  0.98304244  0.24225678  0.49737671  1
  C  C854  1  0.94120960  0.27865745  0.11082473  1
  H  H855  1  0.77755864  0.09776296  0.26393652  1
  H  H856  1  0.85201017  0.24650677  0.45443982  1
  N  N857  1  0.89514165  0.03767806  0.42313204  1
  H  H858  1  0.80728291  0.40708750  0.45534234  1
  C  C859  1  0.88545391  0.41472570  0.09797557  1
  Zn  Zn860  1  0.86756034  0.19880913  0.03439553  1
  N  N861  1  0.92821320  0.25333964  0.04658420  1
  C  C862  1  0.90944303  0.07547763  0.03110537  1
  H  H863  1  0.79491155  0.23922902  0.41700562  1
  H  H864  1  0.77600473  0.17340649  0.12768021  1
  C  C865  1  0.76981462  0.03276647  0.38432331  1
  H  H866  1  0.87077666  0.19476819  0.28318050  1
  C  C867  1  0.92486333  0.26397889  0.42239851  1
  H  H868  1  0.87430322  0.31399843  0.27276970  1
  H  H869  1  0.76143817  0.37813481  0.39514949  1
  Zn  Zn870  1  0.86832826  0.03638431  0.32024510  1
  H  H871  1  0.96055132  0.35454525  0.29251715  1
  C  C872  1  0.96331123  0.40857392  0.19353249  1
  C  C873  1  0.87548974  0.45468859  0.26519289  1
  N  N874  1  0.91132951  0.31187061  0.38051544  1
  Zn  Zn875  1  0.90350215  0.12728543  0.44528761  1
  H  H876  1  0.97740183  0.15596313  0.44678869  1
  N  N877  1  0.86837925  0.42264843  0.32482814  1
  C  C878  1  0.88996288  0.22372564  0.32621691  1
  C  C879  1  0.80014995  0.38000293  0.40182421  1
  C  C880  1  0.82208881  0.41002671  0.33197898  1
  N  N881  1  0.97078683  0.45700330  0.41553423  1
  N  N882  1  0.79879831  0.02060694  0.32852949  1
  H  H883  1  0.90080408  0.06781104  0.08996047  1
  N  N884  1  0.79909622  0.43395032  0.27207020  1
  C  C885  1  0.89213623  0.28812203  0.31828377  1
  H  H886  1  0.78440446  0.05194830  0.43893436  1
  C  C887  1  0.75449803  0.46515938  0.06929609  1
  H  H888  1  0.99415011  0.10655513  0.36296549  1
  H  H889  1  0.76675295  0.41759460  0.05728940  1
  N  N890  1  0.93061472  0.01449885  0.26419380  1
  H  H891  1  0.98584803  0.00538413  0.10013903  1
  H  H892  1  0.79755005  0.31125727  0.26538852  1
  N  N893  1  0.95977050  0.13698475  0.49012676  1
  N  N894  1  0.96660384  0.06342900  0.71401319  1
  C  C895  1  0.80935153  0.17036524  0.50573628  1
  C  C896  1  0.90812941  0.16402039  0.84891799  1
  C  C897  1  0.91264543  0.11933360  0.91932643  1
  N  N898  1  0.75135111  0.03799437  0.86106136  1
  H  H899  1  0.91902178  0.14615547  0.79329022  1
  C  C900  1  0.86455458  0.19296623  0.66763978  1
  N  N901  1  0.84283036  0.22607008  0.71796376  1
  H  H902  1  0.92942657  0.24112286  0.54473470  1
  C  C903  1  0.87535757  0.25945753  0.75771964  1
  N  N904  1  0.89877038  0.12486185  0.99134082  1
  C  C905  1  0.93293891  0.09689684  0.60060770  1
  C  C906  1  0.86744971  0.31167274  0.81420326  1
  H  H907  1  0.77703188  0.38595976  0.90823473  1
  H  H908  1  0.84583407  0.16348565  0.62791347  1
  N  N909  1  0.93287892  0.06440335  0.91063503  1
  C  C910  1  0.88421588  0.04826508  0.70435376  1
  C  C911  1  0.77901418  0.24263402  0.94654434  1
  Zn  Zn912  1  0.96417782  0.03200668  0.81516086  1
  H  H913  1  0.87832786  0.35461264  0.78915766  1
  C  C914  1  0.97050454  0.12092617  0.55848675  1
  C  C915  1  0.93165205  0.06943786  0.67162592  1
  H  H916  1  0.89937673  0.09801848  0.57105579  1
  H  H917  1  0.82945401  0.31814800  0.82556232  1
  H  H918  1  0.87221123  0.18054233  0.84157254  1
  N  N919  1  0.75974229  0.29326979  0.91893945  1
  H  H920  1  0.76180847  0.41267815  0.60436654  1
  H  H921  1  0.95556281  0.31177534  0.52337656  1
  Zn  Zn922  1  0.94297674  0.48949391  0.98910847  1
  C  C923  1  0.96998208  0.33538650  0.95073540  1
  N  N924  1  0.98103478  0.36477106  0.81661803  1
  C  C925  1  0.87298783  0.34824185  0.53957516  1
  H  H926  1  0.98395840  0.18334147  0.80797321  1
  C  C927  1  0.85276316  0.35640332  0.61368494  1
  H  H928  1  0.78452274  0.14690486  0.97511664  1
  C  C929  1  0.96738718  0.38426890  0.88885363  1
  C  C930  1  0.98561714  0.35354361  0.63300196  1
  C  C931  1  0.83704462  0.42146575  0.70173525  1
  C  C932  1  0.91278958  0.20346760  0.67803070  1
  H  H933  1  0.93971452  0.18720171  0.64015836  1
  H  H934  1  0.80405926  0.10909091  0.84194418  1
  N  N935  1  0.77184926  0.15186386  0.54350939  1
  H  H936  1  0.88267898  0.30668333  0.86915206  1
  N  N937  1  0.85182440  0.41584734  0.63308489  1
  H  H938  1  0.84300185  0.31805649  0.65208312  1
  C  C939  1  0.82188499  0.43535076  0.76948309  1
  N  N940  1  0.84105315  0.12631209  0.50664737  1
  H  H941  1  0.93055811  0.40173098  0.67463488  1
  C  C942  1  0.82286278  0.07884585  0.54411535  1
  H  H943  1  0.81092753  0.40224359  0.81133991  1
  N  N944  1  0.91787086  0.24406589  0.73316225  1
  H  H945  1  0.82476245  0.48218032  0.78885953  1
  H  H946  1  0.83969042  0.03257460  0.54748598  1
  H  H947  1  0.92966901  0.20441485  0.85661906  1
  C  C948  1  0.82126176  0.02763606  0.91171500  1
  H  H949  1  0.76222015  0.21399080  0.79779539  1
  C  C950  1  0.79153197  0.06705010  0.86786146  1
  N  N951  1  0.82235768  0.25604360  0.97264329  1
  C  C952  1  0.95563583  0.39528581  0.63005211  1
  H  H953  1  0.89867929  0.48168724  0.81706008  1
  C  C954  1  0.82747150  0.31552280  0.96381424  1
  Zn  Zn955  1  0.87859429  0.47923344  0.57101467  1
  C  C956  1  0.92901755  0.03519616  0.97713605  1
  H  H957  1  0.97078060  0.28713939  0.93045066  1
  Zn  Zn958  1  0.97950712  0.28167755  0.76644611  1
  C  C959  1  0.78683081  0.34005383  0.92802789  1
  N  N960  1  0.96916011  0.44511667  0.89491544  1
  C  C961  1  0.99678014  0.41582922  0.78465023  1
  H  H962  1  0.94311788  0.49428969  0.71687997  1
  C  C963  1  0.98911811  0.46702275  0.83262485  1
  H  H964  1  0.85781536  0.03589168  0.92584893  1
  H  H965  1  0.88720730  0.03180030  0.76366375  1
  H  H966  1  0.86765933  0.01121376  0.67172342  1
  C  C967  1  0.75687066  0.17717179  0.95701112  1
  H  H968  1  0.95356618  0.42633580  0.58058967  1
  C  C969  1  0.77844114  0.09504994  0.56769277  1
  H  H970  1  0.86042837  0.08842498  0.70916832  1
  H  H971  1  0.94130596  0.33244658  0.99478665  1
  H  H972  1  0.76244642  0.21766619  0.63804563  1
  H  H973  1  0.80470754  0.27049867  0.51324773  1
  H  H974  1  0.85674415  0.34150021  0.99066400  1
  H  H975  1  0.87748922  0.30454411  0.51230089  1
  C  C976  1  0.94921180  0.26663714  0.50079134  1
  N  N977  1  0.88559902  0.39897848  0.50903392  1
  H  H978  1  0.86536874  0.44840902  0.99289789  1
  H  H979  1  0.77555190  0.92988639  0.17646104  1
  H  H980  1  0.78475504  0.71360697  0.08704140  1
  N  N981  1  0.99265245  0.54895281  0.01908982  1
  H  H982  1  0.96627651  0.58620794  0.29809487  1
  N  N983  1  0.97902110  0.85303771  0.06516819  1
  C  C984  1  0.77331420  0.99731476  0.27183039  1
  N  N985  1  0.79656858  0.59725521  0.45006789  1
  Zn  Zn986  1  0.98561428  0.84184640  0.24764844  1
  Zn  Zn987  1  0.78951041  0.68098994  0.38229719  1
  H  H988  1  0.91687506  0.61250886  0.02121592  1
  H  H989  1  0.89499303  0.98721376  0.16431240  1
  H  H990  1  0.81292054  0.64507018  0.18106557  1
  H  H991  1  0.83094163  0.95854798  0.20604973  1
  C  C992  1  0.83128068  0.55714419  0.45649335  1
  N  N993  1  0.78611845  0.69633730  0.03478645  1
  H  H994  1  0.87549635  0.92869439  0.02729134  1
  C  C995  1  0.98988840  0.80186241  0.02082733  1
  C  C996  1  0.75634759  0.82766341  0.39391050  1
  C  C997  1  0.82008712  0.89067525  0.08253983  1
  C  C998  1  0.80943339  0.64679229  0.28290079  1
  C  C999  1  0.80396466  0.85150918  0.14166589  1
  N  N1000  1  0.86347381  0.90447939  0.06967492  1
  Zn  Zn1001  1  0.91792766  0.87252320  0.11914537  1
  H  H1002  1  0.78551748  0.83654930  0.43652095  1
  H  H1003  1  0.85346151  0.53183430  0.34143055  1
  H  H1004  1  0.89574980  0.51861923  0.41562760  1
  C  C1005  1  0.88349564  0.84861425  0.26228651  1
  H  H1006  1  0.88690391  0.59440608  0.38099461  1
  N  N1007  1  0.75150245  0.77372244  0.35984009  1
  N  N1008  1  0.80233481  0.67143291  0.22596608  1
  H  H1009  1  0.84973266  0.84343203  0.29352096  1
  N  N1010  1  0.91483042  0.85456743  0.22360375  1
  H  H1011  1  0.90737807  0.60590770  0.48385075  1
  C  C1012  1  0.86870315  0.55027684  0.39479866  1
  H  H1013  1  0.92323364  0.52725764  0.31509684  1
  H  H1014  1  0.79382174  0.91144840  0.04416339  1
  H  H1015  1  0.82573108  0.60142525  0.27946479  1
  C  C1016  1  0.95981498  0.53428128  0.30099315  1
  C  C1017  1  0.79156363  0.81498890  0.19454779  1
  C  C1018  1  0.90524940  0.99761835  0.46121194  1
  H  H1019  1  0.96780117  0.51705549  0.24254619  1
  H  H1020  1  0.85735546  0.62265320  0.03842770  1
  H  H1021  1  0.80795246  0.77028763  0.20050451  1
  H  H1022  1  0.76504808  0.82832939  0.23357277  1
  C  C1023  1  0.98380666  0.50434213  0.37047273  1
  C  C1024  1  0.92909186  0.99835780  0.19169263  1
  C  C1025  1  0.79403373  0.97115687  0.19770106  1
  H  H1026  1  0.94772573  0.71736330  0.04001668  1
  H  H1027  1  0.99311761  0.73822992  0.13810191  1
  H  H1028  1  0.75837084  0.50338624  0.35702293  1
  H  H1029  1  0.97494278  0.87003745  0.48459204  1
  H  H1030  1  0.91375630  0.95684820  0.49205506  1
  H  H1031  1  0.83762753  0.80111538  0.01421067  1
  N  N1032  1  0.92148510  0.54428969  0.61879396  1
  C  C1033  1  0.92276977  0.60531972  0.60431803  1
  C  C1034  1  0.87873096  0.59816161  0.92126691  1
  N  N1035  1  0.94628328  0.63375742  0.66139401  1
  H  H1036  1  0.81115118  0.72188126  0.68489479  1
  N  N1037  1  0.87421224  0.62353854  0.84932562  1
  Zn  Zn1038  1  0.87213751  0.71064816  0.82123529  1
  C  C1039  1  0.89937079  0.63303238  0.53478022  1
  H  H1040  1  0.78775196  0.53644046  0.62647369  1
  Zn  Zn1041  1  0.95579624  0.72536288  0.67448742  1
  C  C1042  1  0.87673470  0.58025721  0.79866191  1
  N  N1043  1  0.89252696  0.75291880  0.72679488  1
  H  H1044  1  0.94509988  0.98962234  0.98398807  1
  H  H1045  1  0.97141472  0.81039404  0.72857311  1
  C  C1046  1  0.77305633  0.59194328  0.51407041  1
  N  N1047  1  0.86118435  0.76868920  0.91035709  1
  C  C1048  1  0.79490767  0.55083764  0.56689229  1
  C  C1049  1  0.95138010  0.92923264  0.67142517  1
  C  C1050  1  0.87474216  0.82366357  0.90769591  1
  N  N1051  1  0.83116589  0.53205143  0.52894097  1
  H  H1052  1  0.75924712  0.75417350  0.85213904  1
  C  C1053  1  0.98719568  0.80504691  0.57715426  1
  N  N1054  1  0.97249408  0.93923762  0.81177321  1
  H  H1055  1  0.87511623  0.58564232  0.73934813  1
  H  H1056  1  0.75617242  0.51391974  0.96047484  1
  H  H1057  1  0.92885299  0.97044589  0.67597009  1
  H  H1058  1  0.94502053  0.64619929  0.92139252  1
  H  H1059  1  0.99768325  0.65481882  0.87828026  1
  H  H1060  1  0.80470733  0.67876495  0.93077499  1
  N  N1061  1  0.80592538  0.97558658  0.93395980  1
  C  C1062  1  0.96439577  0.90500250  0.75121353  1
  C  C1063  1  0.76262335  0.80427754  0.85414171  1
  H  H1064  1  0.96250627  0.58640786  0.87320661  1
  H  H1065  1  0.79540069  0.81369506  0.82162355  1
  H  H1066  1  0.89691827  0.91560926  0.91548504  1
  H  H1067  1  0.90689252  0.87462827  0.82385277  1
  N  N1068  1  0.89082781  0.53866405  0.91441941  1
  C  C1069  1  0.98736426  0.84131461  0.83979265  1
  C  C1070  1  0.89263619  0.87384761  0.88028224  1
  N  N1071  1  0.97572501  0.84635974  0.76901803  1
  C  C1072  1  0.98771625  0.90229495  0.86649426  1
  C  C1073  1  0.87310904  0.79409843  0.70310245  1
  H  H1074  1  0.90895950  0.67826462  0.52093446  1
  H  H1075  1  0.81600168  0.93884479  0.96208364  1
  C  C1076  1  0.88491840  0.52571305  0.84201348  1
  H  H1077  1  0.76515873  0.82282628  0.91506607  1
  H  H1078  1  0.99549096  0.79911214  0.86804641  1
  C  C1079  1  0.88429242  0.63210791  0.99571934  1
  H  H1080  1  0.85105646  0.83194535  0.69064743  1
  C  C1081  1  0.81627277  0.72519523  0.55954935  1
  C  C1082  1  0.94258490  0.53732666  0.68642805  1
  H  H1083  1  0.85208027  0.71369919  0.54587697  1
  C  C1084  1  0.81276321  0.70982606  0.97910959  1
  C  C1085  1  0.79595848  0.72391261  0.63029511  1
  H  H1086  1  0.78809997  0.58657127  0.88359350  1
  C  C1087  1  0.96268267  0.59383848  0.70922354  1
  H  H1088  1  0.98324091  0.60389783  0.75785236  1
  H  H1089  1  0.98312846  0.94684744  0.64332253  1
  H  H1090  1  0.99939151  0.51445829  0.81917947  1
  C  C1091  1  0.84087238  0.76096117  0.97846508  1
  H  H1092  1  0.93642916  0.89271785  0.63079660  1
  C  C1093  1  0.97641062  0.62165867  0.91154462  1
  H  H1094  1  0.96928324  0.73046193  0.94501020  1
  H  H1095  1  0.86008819  0.62817193  0.54463027  1
  H  H1096  1  0.76575570  0.61786791  0.73230374  1
  C  C1097  1  0.75947272  0.61579830  0.85875243  1
  H  H1098  1  0.89071124  0.68340573  0.98824917  1
  N  N1099  1  0.75063922  0.73054991  0.61549629  1
  H  H1100  1  0.98793245  0.66122152  0.54589457  1
  N  N1101  1  0.78565871  0.72442308  0.50224841  1
  C  C1102  1  0.95572897  0.75329204  0.99650396  1
  H  H1103  1  0.92309903  0.77537894  0.98844698  1
