# generated using pymatgen
data_ZnH12C18N2O3
_symmetry_space_group_name_H-M   'P 1'
_cell_length_a   17.52674532
_cell_length_b   34.79299346
_cell_length_c   16.49529796
_cell_angle_alpha   90.00000000
_cell_angle_beta   90.00000000
_cell_angle_gamma   90.00000000
_symmetry_Int_Tables_number   1
_chemical_formula_structural   ZnH12C18N2O3
_chemical_formula_sum   'Zn24 H288 C432 N48 O72'
_cell_volume   10058.96359252
_cell_formula_units_Z   24
loop_
 _symmetry_equiv_pos_site_id
 _symmetry_equiv_pos_as_xyz
  1  'x, y, z'
loop_
 _atom_site_type_symbol
 _atom_site_label
 _atom_site_symmetry_multiplicity
 _atom_site_fract_x
 _atom_site_fract_y
 _atom_site_fract_z
 _atom_site_occupancy
  H  H0  1  0.13047308  0.20550766  0.09498393  1
  H  H1  1  0.26151283  0.04251759  0.31178802  1
  C  C2  1  0.38319894  0.19193294  0.33833886  1
  H  H3  1  0.36675068  0.16285054  0.02920651  1
  C  C4  1  0.00694459  0.20970526  0.11328768  1
  C  C5  1  0.21819455  0.11713222  0.20831172  1
  C  C6  1  0.40875670  0.17170648  0.27069794  1
  H  H7  1  0.18391190  0.16035740  0.33580179  1
  C  C8  1  0.45751853  0.02665483  0.12941088  1
  H  H9  1  0.08630220  0.05378122  0.39833653  1
  C  C10  1  0.24432819  0.09679915  0.14353290  1
  O  O11  1  0.16465855  0.13438950  0.45283847  1
  C  C12  1  0.28278743  0.05042189  0.47311465  1
  C  C13  1  0.48571773  0.22431357  0.42059312  1
  C  C14  1  0.36908278  0.06858746  0.35842451  1
  C  C15  1  0.24449535  0.16152201  0.31855669  1
  C  C16  1  0.35181693  0.21361924  0.46558570  1
  C  C17  1  0.32090679  0.10486136  0.11585996  1
  H  H18  1  0.17011261  0.11652680  0.03379654  1
  O  O19  1  0.23105129  0.24521522  0.15863786  1
  C  C20  1  0.29983804  0.18573988  0.35790818  1
  O  O21  1  0.11418704  0.02771663  0.27736123  1
  Zn  Zn22  1  0.18783939  0.18755735  0.49948470  1
  H  H23  1  0.09056301  0.02398109  0.12536090  1
  C  C24  1  0.10687360  0.11867848  0.03443211  1
  C  C25  1  0.35404051  0.14755651  0.23024922  1
  H  H26  1  0.37537104  0.13626685  0.45312807  1
  C  C27  1  0.37586536  0.12584929  0.15826085  1
  H  H28  1  0.32485434  0.01692513  0.19130153  1
  H  H29  1  0.16162707  0.11314797  0.23433571  1
  C  C30  1  0.27161328  0.14067975  0.25132941  1
  O  O31  1  0.11528942  0.21515572  0.40233390  1
  H  H32  1  0.20258602  0.11928440  0.47137494  1
  C  C33  1  0.06713143  0.10877627  0.10360610  1
  N  N34  1  0.33166489  0.07652157  0.43326557  1
  N  N35  1  0.41058768  0.21040190  0.40838350  1
  C  C36  1  0.47508539  0.19131740  0.00822042  1
  C  C37  1  0.32077834  0.04974888  0.29917392  1
  H  H38  1  0.10315138  0.09858199  0.15241872  1
  C  C39  1  0.08275595  0.22198840  0.11611275  1
  O  O40  1  0.42211029  0.21455919  0.12990357  1
  C  C41  1  0.44445049  0.08309988  0.33988064  1
  C  C42  1  0.34113013  0.11082960  0.47358242  1
  C  C43  1  0.43570481  0.04539804  0.21441036  1
  H  H44  1  0.20821646  0.07413190  0.11119105  1
  H  H45  1  0.33553624  0.08877769  0.06209576  1
  C  C46  1  0.47709318  0.06864384  0.26712680  1
  N  N47  1  0.28912682  0.19993477  0.43532881  1
  H  H48  1  0.29827762  0.02307899  0.01843826  1
  C  C49  1  0.35990154  0.03501758  0.23303107  1
  C  C50  1  0.26162838  0.01297947  0.46140059  1
  O  O51  1  0.03984288  0.05937606  0.42725772  1
  H  H52  1  0.43558834  0.12236820  0.14179748  1
  O  O53  1  0.41025842  0.00194593  0.10543420  1
  C  C54  1  0.13987264  0.00273927  0.11641856  1
  C  C55  1  0.47026940  0.21962857  0.07749498  1
  Zn  Zn56  1  0.05558756  0.11265224  0.47634616  1
  H  H57  1  0.47263814  0.10385118  0.37770972  1
  H  H58  1  0.46901213  0.17430816  0.24985011  1
  C  C59  1  0.10568372  0.24967423  0.39882449  1
  C  C60  1  0.25316638  0.23086389  0.74537331  1
  C  C61  1  0.21670713  0.05717436  0.60962344  1
  N  N62  1  0.30549147  0.10729747  0.54204910  1
  H  H63  1  0.34847982  0.23388761  0.65747217  1
  H  H64  1  0.18429098  0.06852005  0.99613592  1
  H  H65  1  0.41562638  0.21620905  0.69000412  1
  C  C66  1  0.17063277  0.09753783  0.88233949  1
  H  H67  1  0.43444039  0.07215328  0.63570006  1
  N  N68  1  0.47904603  0.14761455  0.78138119  1
  N  N69  1  0.14461693  0.12710170  0.76297442  1
  Zn  Zn70  1  0.13537293  0.14871313  0.65254690  1
  C  C71  1  0.26756317  0.07225037  0.55034775  1
  H  H72  1  0.19536898  0.07440732  0.66282394  1
  C  C73  1  0.43042418  0.14303699  0.92131718  1
  H  H74  1  0.46895509  0.22603875  0.55254039  1
  C  C75  1  0.27810853  0.05678937  0.90580615  1
  N  N76  1  0.21896895  0.18709422  0.63012575  1
  C  C77  1  0.39521849  0.06013679  0.81008400  1
  H  H78  1  0.08489998  0.21644112  0.65748224  1
  O  O79  1  0.44080761  0.05540274  0.59235419  1
  H  H80  1  0.48931099  0.01676566  0.51038959  1
  H  H81  1  0.35686717  0.14655701  0.79730703  1
  N  N82  1  0.10387454  0.11940919  0.88836907  1
  O  O83  1  0.40081945  0.22858201  0.64173519  1
  C  C84  1  0.41865067  0.16397142  0.99208383  1
  Zn  Zn85  1  0.30426153  0.14942018  0.62146255  1
  C  C86  1  0.03751742  0.21695077  0.61180986  1
  C  C87  1  0.22472247  0.22300823  0.66628358  1
  C  C88  1  0.20847482  0.07348626  0.93595995  1
  H  H89  1  0.12541291  0.00265034  0.99011739  1
  C  C90  1  0.40501849  0.14735604  0.75450640  1
  H  H91  1  0.04180811  0.07648967  0.80938731  1
  C  C92  1  0.47837787  0.14616926  0.64059693  1
  N  N93  1  0.40434593  0.14671671  0.67393523  1
  C  C94  1  0.19534309  0.01810674  0.59888668  1
  C  C95  1  0.27356839  0.09057104  0.77136632  1
  H  H96  1  0.38803386  0.12157540  0.90460066  1
  H  H97  1  0.13419153  0.00715230  0.71123079  1
  H  H98  1  0.04192873  0.15840961  0.81050459  1
  H  H99  1  0.42108128  0.07223633  0.75529666  1
  C  C100  1  0.19955402  0.10513823  0.79615939  1
  H  H101  1  0.29931528  0.09968845  0.70875844  1
  C  C102  1  0.39062857  0.01924410  0.93150085  1
  H  H103  1  0.26948575  0.20612639  0.78413609  1
  C  C104  1  0.31665776  0.03039886  0.95714087  1
  C  C105  1  0.31490019  0.06845629  0.82733439  1
  C  C106  1  0.49236523  0.15111104  0.86609496  1
  C  C107  1  0.08985021  0.13684350  0.81531352  1
  C  C108  1  0.06305848  0.12595560  0.96219924  1
  C  C109  1  0.43174273  0.03479380  0.86179595  1
  N  N110  1  0.05016317  0.15060279  0.57465605  1
  N  N111  1  0.00589295  0.01659365  0.79643984  1
  H  H112  1  0.40461657  0.06636772  0.55411985  1
  C  C113  1  0.03358916  0.05199694  0.76648555  1
  C  C114  1  0.00083655  0.00647809  0.88038583  1
  N  N115  1  0.02063677  0.05571902  0.68777510  1
  C  C116  1  0.01309464  0.18538460  0.56228917  1
  H  H117  1  0.47685861  0.14244348  0.50539540  1
  H  H118  1  0.49316963  0.02645459  0.85785739  1
  H  H119  1  0.18791974  0.24909973  0.55263843  1
  H  H120  1  0.35665835  0.22458377  0.52804354  1
  C  C121  1  0.21850809  0.44318096  0.28161199  1
  C  C122  1  0.21832793  0.37785631  0.40664948  1
  C  C123  1  0.04262382  0.27905796  0.19749483  1
  Zn  Zn124  1  0.44368960  0.29931037  0.01465011  1
  O  O125  1  0.33752950  0.27654942  0.30566871  1
  C  C126  1  0.28874078  0.39804389  0.44150918  1
  H  H127  1  0.31412551  0.40088950  0.28427055  1
  H  H128  1  0.13690556  0.48750697  0.27354906  1
  Zn  Zn129  1  0.17409072  0.35190077  0.12697201  1
  H  H130  1  0.06531499  0.32998664  0.42206106  1
  C  C131  1  0.19627668  0.48120679  0.26821224  1
  C  C132  1  0.35884354  0.38165943  0.41932311  1
  O  O133  1  0.28030361  0.39064242  0.11770861  1
  O  O134  1  0.37330476  0.29781910  0.11035594  1
  C  C135  1  0.35856531  0.45757004  0.26442055  1
  H  H136  1  0.47814499  0.38811657  0.08693438  1
  C  C137  1  0.03402391  0.26958654  0.38044365  1
  H  H138  1  0.14047174  0.44087169  0.09381330  1
  C  C139  1  0.29736256  0.43116141  0.27793085  1
  H  H140  1  0.01371950  0.31159552  0.05359292  1
  H  H141  1  0.32781536  0.29284531  0.08129449  1
  N  N142  1  0.08706009  0.38739342  0.07914932  1
  Zn  Zn143  1  0.24186821  0.29549513  0.35265482  1
  H  H144  1  0.17064795  0.42420217  0.30085764  1
  O  O145  1  0.20110420  0.30235505  0.19502238  1
  C  C146  1  0.00675130  0.48403301  0.05732701  1
  C  C147  1  0.29985228  0.46765430  0.08273322  1
  H  H148  1  0.48452157  0.38665897  0.42986190  1
  C  C149  1  0.08679142  0.42472880  0.07490830  1
  C  C150  1  0.00771686  0.37768312  0.06021424  1
  O  O151  1  0.22352451  0.35387458  0.34836662  1
  H  H152  1  0.43290442  0.45524831  0.09828238  1
  H  H153  1  0.26890107  0.46033543  0.13602276  1
  C  C154  1  0.28239668  0.43258973  0.48423239  1
  H  H155  1  0.05859503  0.29996535  0.24450734  1
  C  C156  1  0.49307599  0.44904354  0.09904147  1
  H  H157  1  0.49946926  0.32913895  0.22238838  1
  C  C158  1  0.42635834  0.39859409  0.44496451  1
  H  H159  1  0.42010085  0.44865815  0.26753101  1
  N  N160  1  0.01752429  0.44335110  0.05954651  1
  H  H161  1  0.12772494  0.48845239  0.02206081  1
  O  O162  1  0.15574144  0.38887021  0.42686820  1
  H  H163  1  0.36540508  0.35677977  0.37904399  1
  C  C164  1  0.18026657  0.26964078  0.16879077  1
  C  C165  1  0.32167768  0.43893395  0.02724817  1
  O  O166  1  0.15567950  0.27358052  0.42347452  1
  Zn  Zn167  1  0.34423326  0.25284526  0.19115767  1
  C  C168  1  0.30725301  0.39740235  0.04746854  1
  C  C169  1  0.09775665  0.25705237  0.15518236  1
  H  H170  1  0.33920152  0.25513659  0.34144139  1
  C  C171  1  0.02104690  0.30909384  0.39740901  1
  C  C172  1  0.33586160  0.49618757  0.25386840  1
  H  H173  1  0.22551802  0.44503304  0.49516040  1
  C  C174  1  0.41888875  0.43092999  0.49617805  1
  O  O175  1  0.17415097  0.33050052  0.00587817  1
  C  C176  1  0.20940584  0.25473366  0.61391538  1
  C  C177  1  0.21949431  0.29261135  0.63660204  1
  H  H178  1  0.37027152  0.42617470  0.91150441  1
  H  H179  1  0.40517696  0.49187478  0.87336776  1
  H  H180  1  0.13384658  0.34908941  0.99649514  1
  C  C181  1  0.35447890  0.44951059  0.95372099  1
  H  H182  1  0.20434650  0.31753087  0.60188975  1
  Zn  Zn183  1  0.26848714  0.32744903  0.93371045  1
  C  C184  1  0.26370672  0.33942355  0.74372629  1
  C  C185  1  0.26749618  0.26820578  0.76831491  1
  C  C186  1  0.24861708  0.29998292  0.71452259  1
  O  O187  1  0.25670543  0.36648749  0.69886181  1
  O  O188  1  0.29033802  0.34740211  0.81811900  1
  N  N189  1  0.49075438  0.44264892  0.52549071  1
  O  O190  1  0.32693400  0.37197103  0.99881327  1
  H  H191  1  0.05817913  0.28172906  0.71017451  1
  C  C192  1  0.04369722  0.39749763  0.87699441  1
  C  C193  1  0.37365786  0.48640289  0.93284729  1
  H  H194  1  0.37439514  0.28913538  0.89990772  1
  O  O195  1  0.34462091  0.28492042  0.94685083  1
  H  H196  1  0.07028727  0.39441899  0.93501909  1
  H  H197  1  0.34692442  0.47720953  0.54872172  1
  H  H198  1  0.28981400  0.27492274  0.83110658  1
  H  H199  1  0.08695573  0.43989294  0.69243832  1
  C  C200  1  0.08767970  0.41996475  0.81880245  1
  H  H201  1  0.14422693  0.43097175  0.83391836  1
  C  C202  1  0.05662017  0.42611096  0.74241583  1
  C  C203  1  0.34860244  0.45033953  0.51072992  1
  C  C204  1  0.01152248  0.28300252  0.66385642  1
  C  C205  1  0.23234521  0.68613715  0.15699635  1
  C  C206  1  0.25414983  0.58367313  0.23304641  1
  C  C207  1  0.20693776  0.65124647  0.19593232  1
  N  N208  1  0.42975863  0.60839189  0.03169668  1
  Zn  Zn209  1  0.49478482  0.61915165  0.14271234  1
  H  H210  1  0.46281822  0.51014383  0.24158234  1
  H  H211  1  0.29118774  0.52984117  0.10007253  1
  H  H212  1  0.17795976  0.72403686  0.41681224  1
  C  C213  1  0.39884740  0.73610683  0.09875012  1
  C  C214  1  0.09994673  0.70752457  0.17632123  1
  N  N215  1  0.25241866  0.61966392  0.20945011  1
  H  H216  1  0.16754897  0.54976504  0.28463145  1
  C  C217  1  0.27858356  0.70368990  0.35120128  1
  C  C218  1  0.17489635  0.71367999  0.14970259  1
  C  C219  1  0.07964108  0.67241341  0.21540782  1
  H  H220  1  0.25048959  0.67629405  0.32953871  1
  C  C221  1  0.25595756  0.50959528  0.25709576  1
  H  H222  1  0.31569203  0.61625527  0.44709091  1
  C  C223  1  0.13362625  0.64502937  0.23407682  1
  C  C224  1  0.31191213  0.50634551  0.06102577  1
  C  C225  1  0.39152726  0.55918634  0.22079423  1
  C  C226  1  0.32526508  0.60482694  0.20410660  1
  H  H227  1  0.47144974  0.58689860  0.47911280  1
  H  H228  1  0.46953434  0.52706814  0.09149468  1
  C  C229  1  0.22399898  0.54828969  0.25475021  1
  H  H230  1  0.29543600  0.69256203  0.15070304  1
  H  H231  1  0.37940877  0.68367287  0.47263559  1
  C  C232  1  0.39465820  0.70893931  0.03487017  1
  C  C233  1  0.46900962  0.69031553  0.25009526  1
  C  C234  1  0.00873563  0.55968939  0.08082143  1
  H  H235  1  0.11611856  0.61664993  0.25789883  1
  C  C236  1  0.39256757  0.68272948  0.27994823  1
  C  C237  1  0.01396516  0.60434838  0.09839576  1
  N  N238  1  0.40023090  0.59297356  0.19581269  1
  H  H239  1  0.35192720  0.57746817  0.09380713  1
  C  C240  1  0.40173413  0.52177339  0.24004902  1
  O  O241  1  0.07110368  0.61922400  0.06333595  1
  C  C242  1  0.35440523  0.71168601  0.32192575  1
  O  O243  1  0.28044056  0.55228087  0.48963986  1
  H  H244  1  0.36335886  0.65559164  0.26579287  1
  H  H245  1  0.42437743  0.68085393  0.03968728  1
  C  C246  1  0.37502821  0.58159343  0.03292163  1
  H  H247  1  0.47804750  0.72351426  0.46929785  1
  H  H248  1  0.18574746  0.74261385  0.11956700  1
  C  C249  1  0.07716124  0.54328085  0.05967740  1
  H  H250  1  0.43416339  0.72683955  0.15185956  1
  H  H251  1  0.49780216  0.59869753  0.26297077  1
  H  H252  1  0.02126248  0.66774781  0.23561805  1
  H  H253  1  0.12910149  0.56149308  0.05248572  1
  C  C254  1  0.23878034  0.72988144  0.39865963  1
  C  C255  1  0.07478243  0.50395124  0.04365925  1
  C  C256  1  0.04354894  0.74059521  0.15739159  1
  C  C257  1  0.16144919  0.71015864  0.89261492  1
  C  C258  1  0.14993491  0.74582258  0.75430355  1
  C  C259  1  0.33996576  0.64680420  0.77668935  1
  H  H260  1  0.34465095  0.61523447  0.89105003  1
  C  C261  1  0.43353295  0.66568596  0.58173860  1
  H  H262  1  0.23957169  0.65205275  0.95591978  1
  O  O263  1  0.14107221  0.70353169  0.96405508  1
  C  C264  1  0.40528882  0.60002926  0.63578255  1
  C  C265  1  0.21929207  0.68849396  0.85143965  1
  C  C266  1  0.46052219  0.60266591  0.95235975  1
  C  C267  1  0.25557816  0.65889456  0.89287992  1
  O  O268  1  0.31711960  0.53376564  0.61487440  1
  C  C269  1  0.35535005  0.71772738  0.96070726  1
  H  H270  1  0.38916918  0.63048061  0.74916702  1
  Zn  Zn271  1  0.04419603  0.66331770  0.97874812  1
  C  C272  1  0.31634359  0.56144932  0.54826014  1
  C  C273  1  0.24157954  0.69385349  0.76359946  1
  H  H274  1  0.32778128  0.67962528  0.66955544  1
  C  C275  1  0.48511843  0.70364514  0.74872250  1
  C  C276  1  0.20186868  0.72206510  0.71543365  1
  C  C277  1  0.30261485  0.67301707  0.72885397  1
  C  C278  1  0.31530315  0.63768585  0.85582848  1
  C  C279  1  0.35846013  0.59659940  0.56365901  1
  H  H280  1  0.36832938  0.69960763  0.90693810  1
  C  C281  1  0.42322073  0.56883434  0.91090368  1
  H  H282  1  0.03512704  0.72886679  0.70131361  1
  C  C283  1  0.49132229  0.71858509  0.66926108  1
  H  H284  1  0.41324946  0.57619560  0.67743175  1
  C  C285  1  0.13309759  0.74265596  0.84174179  1
  C  C286  1  0.44514035  0.63396428  0.63875668  1
  H  H287  1  0.21670469  0.72446217  0.64933287  1
  H  H288  1  0.44923203  0.67733141  0.75888485  1
  H  H289  1  0.42715191  0.52723309  0.81158914  1
  C  C290  1  0.45178437  0.55347140  0.83835211  1
  N  N291  1  0.47129056  0.70171463  0.59251767  1
  H  H292  1  0.32886006  0.55015602  0.66011588  1
  C  C293  1  0.34447624  0.51679707  0.98486933  1
  H  H294  1  0.48008487  0.68423636  0.89668172  1
  H  H295  1  0.48404126  0.63749340  0.69130900  1
  N  N296  1  0.37381655  0.55521281  0.97083367  1
  C  C297  1  0.49035327  0.72698984  0.53339435  1
  O  O298  1  0.00361264  0.63269744  0.87534985  1
  O  O299  1  0.00933412  0.57271331  0.83952930  1
  H  H300  1  0.01704495  0.69210873  0.66188680  1
  H  H301  1  0.01017043  0.72376441  0.90176577  1
  H  H302  1  0.43477000  0.51842495  0.50029066  1
  C  C303  1  0.49505449  0.51496570  0.51451478  1
  O  O304  1  0.01787038  0.63208941  0.57232718  1
  H  H305  1  0.14879335  0.74864547  0.58913674  1
  C  C306  1  0.35111529  0.62383897  0.50133639  1
  C  C307  1  0.38496697  0.65951307  0.51514767  1
  C  C308  1  0.29253134  0.82071236  0.16338551  1
  O  O309  1  0.05918439  0.88312536  0.42303163  1
  H  H310  1  0.40355648  0.82791707  0.00405348  1
  C  C311  1  0.11803547  0.85882639  0.05921066  1
  C  C312  1  0.43978542  0.90963403  0.11589925  1
  O  O313  1  0.38251235  0.93268955  0.27721210  1
  C  C314  1  0.35128953  0.76932694  0.09520658  1
  C  C315  1  0.44153003  0.93155459  0.47673887  1
  C  C316  1  0.24133335  0.80496685  0.02964818  1
  O  O317  1  0.13385973  0.83771757  0.37050992  1
  H  H318  1  0.38080835  0.90750127  0.30146267  1
  C  C319  1  0.03833922  0.85669322  0.08336982  1
  H  H320  1  0.29308668  0.92068447  0.08524838  1
  N  N321  1  0.27054348  0.83681619  0.23518161  1
  H  H322  1  0.21640720  0.94195865  0.45710323  1
  C  C323  1  0.39304447  0.75025412  0.33784573  1
  Zn  Zn324  1  0.15684634  0.85567245  0.24763346  1
  C  C325  1  0.34799810  0.77653873  0.38839851  1
  H  H326  1  0.37255692  0.80338572  0.40745159  1
  C  C327  1  0.49178447  0.93065060  0.06598114  1
  H  H328  1  0.39527179  0.92360017  0.15225949  1
  C  C329  1  0.21129968  0.95873853  0.02916534  1
  C  C330  1  0.32572426  0.84810157  0.29092109  1
  H  H331  1  0.01675918  0.85529522  0.14878842  1
  C  C332  1  0.43808285  0.86705800  0.11305919  1
  C  C333  1  0.35031373  0.79337867  0.16482281  1
  C  C334  1  0.09564840  0.85230882  0.42523756  1
  H  H335  1  0.11479031  0.92319935  0.21462635  1
  O  O336  1  0.15683983  0.97260010  0.31929649  1
  H  H337  1  0.26207095  0.94719480  0.22839303  1
  H  H338  1  0.41315446  0.94473915  0.31667500  1
  H  H339  1  0.32647348  0.88829781  0.02696876  1
  H  H340  1  0.38230465  0.78615917  0.21727830  1
  O  O341  1  0.08071436  0.90333459  0.23472022  1
  H  H342  1  0.30395996  0.86440201  0.34577289  1
  C  C343  1  0.23151103  0.95581754  0.17096538  1
  Zn  Zn344  1  0.05635882  0.93105984  0.33457023  1
  C  C345  1  0.23323652  0.82805749  0.09960327  1
  N  N346  1  0.16890517  0.84869011  0.12188667  1
  C  C347  1  0.24899225  0.94158782  0.09559095  1
  O  O348  1  0.39324153  0.84670814  0.28887012  1
  H  H349  1  0.14048280  0.78286396  0.45214339  1
  H  H350  1  0.28482839  0.99639987  0.40907217  1
  H  H351  1  0.39449926  0.85198493  0.14794805  1
  C  C352  1  0.29779054  0.77602871  0.02413760  1
  H  H353  1  0.00131387  0.93499818  0.01701550  1
  O  O354  1  0.06180191  0.76823648  0.11363375  1
  C  C355  1  0.27637062  0.76479492  0.41863612  1
  C  C356  1  0.46550237  0.76032162  0.30597735  1
  C  C357  1  0.17515059  0.98361813  0.18126000  1
  H  H358  1  0.49021409  0.78842200  0.32537314  1
  C  C359  1  0.14759855  0.99557599  0.26403749  1
  H  H360  1  0.48767295  0.96224942  0.06100400  1
  H  H361  1  0.24377635  0.78803394  0.44714135  1
  C  C362  1  0.15592270  0.98899201  0.04010026  1
  N  N363  1  0.49376771  0.94448816  0.42949782  1
  H  H364  1  0.46625390  0.90013899  0.90499733  1
  C  C365  1  0.29955876  0.81347707  0.58064479  1
  C  C366  1  0.39611236  0.82905833  0.93761747  1
  C  C367  1  0.43655994  0.96949456  0.71022192  1
  C  C368  1  0.32876747  0.85553635  0.82114842  1
  C  C369  1  0.06469373  0.78887215  0.79906929  1
  H  H370  1  0.04122557  0.84573818  0.70545330  1
  C  C371  1  0.12462189  0.95728757  0.63888997  1
  C  C372  1  0.13088114  0.77905334  0.58328076  1
  H  H373  1  0.03715896  0.88163159  0.57495524  1
  C  C374  1  0.37619834  0.81782930  0.55493834  1
  H  H375  1  0.20482298  0.84086360  0.64010415  1
  H  H376  1  0.20427865  0.86791954  0.95996723  1
  C  C377  1  0.25914336  0.84704046  0.60675275  1
  C  C378  1  0.31626815  0.88801800  0.96117856  1
  C  C379  1  0.40582851  0.85579250  0.54770066  1
  C  C380  1  0.35912061  0.89083492  0.55549148  1
  H  H381  1  0.40762616  0.79173455  0.54548311  1
  H  H382  1  0.46180665  0.77759207  0.92676271  1
  H  H383  1  0.34132863  0.81581887  0.71080796  1
  C  C384  1  0.42825327  0.79861366  0.89482897  1
  C  C385  1  0.39061873  0.97367877  0.77941425  1
  H  H386  1  0.27838632  0.88714323  0.71668953  1
  C  C387  1  0.49174401  0.93912530  0.71293061  1
  H  H388  1  0.02697954  0.81425032  0.79809866  1
  C  C389  1  0.10283578  0.79630517  0.65496074  1
  H  H390  1  0.36638128  0.95296034  0.90482914  1
  C  C391  1  0.28828742  0.88629814  0.78329113  1
  C  C392  1  0.39950466  0.79417109  0.81222205  1
  H  H393  1  0.08198583  0.94469306  0.67821706  1
  N  N394  1  0.22268075  0.94593643  0.94973003  1
  C  C395  1  0.09841123  0.83553802  0.50657446  1
  C  C396  1  0.27067376  0.91563222  0.92309315  1
  C  C397  1  0.14137652  0.86519135  0.97843167  1
  C  C398  1  0.25827206  0.91679072  0.83369340  1
  C  C399  1  0.06488258  0.85308695  0.57697387  1
  C  C400  1  0.35011045  0.85986747  0.90963362  1
  H  H401  1  0.35538045  0.95747793  0.55476956  1
  C  C402  1  0.35340734  0.82223906  0.77612529  1
  H  H403  1  0.10319984  0.87518008  0.85530531  1
  C  C404  1  0.28420005  0.88436240  0.58804670  1
  C  C405  1  0.21803862  0.99550771  0.52490293  1
  C  C406  1  0.08768396  0.86968017  0.91817687  1
  H  H407  1  0.25513056  0.91053100  0.60230392  1
  N  N408  1  0.10510524  0.77805154  0.73059592  1
  H  H409  1  0.18711414  0.95897118  0.76870785  1
  C  C410  1  0.01035019  0.86677778  0.94205033  1
  N  N411  1  0.20968760  0.94575277  0.81887672  1
  H  H412  1  0.14599805  0.98837374  0.87984889  1
  H  H413  1  0.27740384  0.78384384  0.59193204  1
  C  C414  1  0.12487707  0.79767414  0.50848019  1
  H  H415  1  0.12529085  0.90703600  0.55405512  1
  C  C416  1  0.06942242  0.83378427  0.64992608  1
  C  C417  1  0.38170848  0.93067228  0.52930299  1
  C  C418  1  0.14833897  0.93741311  0.56724547  1
  N  N419  1  0.07634232  0.76849866  0.86499169  1
  H  H420  1  0.02765072  0.94342588  0.86437400  1
  C  C421  1  0.40105042  0.94802860  0.84882233  1
  H  H422  1  0.41718558  0.76903798  0.77582035  1
  C  C423  1  0.45367022  0.91820862  0.85048622  1
  H  H424  1  0.43037031  0.99034998  0.65848097  1
  C  C425  1  0.18498921  0.96394340  0.88604325  1
  C  C426  1  0.19575052  0.95611471  0.51004306  1
  C  C427  1  0.00715949  0.96737205  0.90549729  1
  C  C428  1  0.49034340  0.86136702  0.53291388  1
  H  H429  1  0.34505598  0.99436499  0.78124485  1
  Zn  Zn430  1  0.01849696  0.77238195  0.98729334  1
  H  H431  1  0.19617135  0.80777422  0.98139016  1
  C  C432  1  0.15101580  0.99485796  0.65409778  1
  H  H433  1  0.41879097  0.99826913  0.97440632  1
  C  C434  1  0.30950779  0.75097459  0.95567156  1
  H  H435  1  0.27057103  0.75269753  0.89938424  1
  O  O436  1  0.92788352  0.12353526  0.45254670  1
  C  C437  1  0.66466100  0.23216168  0.15008030  1
  Zn  Zn438  1  0.82048470  0.03780148  0.23217571  1
  C  C439  1  0.58113880  0.04223913  0.44040286  1
  C  C440  1  0.62173794  0.16367628  0.47404486  1
  H  H441  1  0.85770672  0.22446139  0.46604097  1
  C  C442  1  0.69979545  0.16958584  0.46953155  1
  C  C443  1  0.62525679  0.03912872  0.37118661  1
  H  H444  1  0.73792126  0.08198362  0.08931557  1
  O  O445  1  0.88122236  0.05917283  0.34489478  1
  C  C446  1  0.94246761  0.11664239  0.03511906  1
  C  C447  1  0.94771947  0.23415253  0.14554382  1
  C  C448  1  0.69080963  0.06681966  0.35027560  1
  C  C449  1  0.98611752  0.10611008  0.10235114  1
  O  O450  1  0.70958889  0.09059725  0.40422135  1
  H  H451  1  0.85555329  0.23920069  0.31790401  1
  Zn  Zn452  1  0.82968268  0.08353490  0.44503730  1
  N  N453  1  0.76916488  0.18601409  0.11583432  1
  H  H454  1  0.52333892  0.22494994  0.28978566  1
  C  C455  1  0.74310079  0.22187200  0.13669200  1
  C  C456  1  0.94463218  0.09391922  0.17619391  1
  O  O457  1  0.87317835  0.08897181  0.17763868  1
  H  H458  1  0.74279480  0.19461490  0.28923876  1
  O  O459  1  0.71834963  0.07000896  0.28210745  1
  H  H460  1  0.89178984  0.08209948  0.31295286  1
  H  H461  1  0.99407589  0.18135104  0.08064926  1
  H  H462  1  0.88010559  0.16065812  0.10363380  1
  H  H463  1  0.87846349  0.11420631  0.03376999  1
  O  O464  1  0.73710439  0.00944929  0.15006612  1
  N  N465  1  0.87105298  0.22265620  0.14083463  1
  C  C466  1  0.90935632  0.15750323  0.46377177  1
  O  O467  1  0.98416043  0.09225557  0.23854995  1
  C  C468  1  0.84447528  0.18696984  0.12002297  1
  H  H469  1  0.72697530  0.16744415  0.40819433  1
  O  O470  1  0.51551494  0.03658325  0.09373682  1
  O  O471  1  0.79286192  0.19272003  0.30465611  1
  C  C472  1  0.60662062  0.24513935  0.38123227  1
  H  H473  1  0.59144214  0.06703703  0.48105386  1
  H  H474  1  0.53767862  0.07895599  0.24956641  1
  O  O475  1  0.93366211  0.01318136  0.17187135  1
  H  H476  1  0.81547078  0.19056102  0.24973708  1
  H  H477  1  0.85459677  0.16307010  0.42904561  1
  C  C478  1  0.75812471  0.06948311  0.02956921  1
  H  H479  1  0.58395380  0.16077803  0.41990699  1
  H  H480  1  0.62016158  0.20958006  0.13653273  1
  C  C481  1  0.53689051  0.23047204  0.35439086  1
  H  H482  1  0.98981785  0.21463797  0.35208880  1
  C  C483  1  0.96800861  0.03328350  0.01498736  1
  C  C484  1  0.52523439  0.01527272  0.45726778  1
  H  H485  1  0.65677114  0.00870455  0.26325149  1
  H  H486  1  0.94739306  0.05658911  0.05692087  1
  C  C487  1  0.62038943  0.00889254  0.31585894  1
  C  C488  1  0.76100921  0.00137209  0.08146112  1
  C  C489  1  0.77282350  0.03028906  0.01520455  1
  C  C490  1  0.97378688  0.24499853  0.35599586  1
  Zn  Zn491  1  0.99169510  0.03323949  0.32247704  1
  C  C492  1  0.80646652  0.24832370  0.15357063  1
  C  C493  1  0.81332735  0.04047496  0.87187113  1
  H  H494  1  0.58269071  0.22179764  0.96650690  1
  H  H495  1  0.75490391  0.17785287  0.67487682  1
  C  C496  1  0.79711841  0.01712462  0.93726709  1
  C  C497  1  0.80105564  0.08051913  0.88720253  1
  N  N498  1  0.89716692  0.11908880  0.71042827  1
  C  C499  1  0.74322975  0.17688766  0.54137294  1
  N  N500  1  0.82865882  0.10569199  0.82442785  1
  H  H501  1  0.82857348  0.02790281  0.81296843  1
  H  H502  1  0.71234537  0.24176637  0.91323434  1
  C  C503  1  0.63795321  0.16117499  0.62709372  1
  C  C504  1  0.98165487  0.12880182  0.96487416  1
  C  C505  1  0.87230603  0.09199792  0.76111578  1
  C  C506  1  0.87051224  0.15353519  0.74288924  1
  C  C507  1  0.60785158  0.15252379  0.70370289  1
  C  C508  1  0.77440994  0.09418049  0.96470002  1
  H  H509  1  0.74560245  0.16858830  0.90775762  1
  H  H510  1  0.65135606  0.03508126  0.81748126  1
  C  C511  1  0.79094999  0.03633609  0.58089249  1
  C  C512  1  0.88272426  0.19192303  0.71161943  1
  H  H513  1  0.94909277  0.13355724  0.90749678  1
  C  C514  1  0.71875054  0.17087094  0.62100720  1
  H  H515  1  0.92052502  0.19955707  0.65971347  1
  C  C516  1  0.94361700  0.18809190  0.51002551  1
  H  H517  1  0.79747798  0.19001780  0.53307521  1
  H  H518  1  0.64533497  0.14826407  0.75651720  1
  C  C519  1  0.90332660  0.22289543  0.50995311  1
  C  C520  1  0.82405461  0.14530519  0.81832909  1
  C  C521  1  0.68800341  0.01706597  0.77521656  1
  C  C522  1  0.84258745  0.22087119  0.75056489  1
  O  O523  1  0.77149010  0.07187125  0.58114972  1
  H  H524  1  0.88976405  0.06140187  0.75839423  1
  C  C525  1  0.98522435  0.00095335  0.58308883  1
  Zn  Zn526  1  0.99329638  0.10840894  0.63591084  1
  C  C527  1  0.76412078  0.01576334  0.65590157  1
  C  C528  1  0.78719671  0.21291508  0.81917225  1
  C  C529  1  0.78156432  0.17573774  0.85519935  1
  C  C530  1  0.58738935  0.15804738  0.55360871  1
  H  H531  1  0.61086823  0.17613017  0.85641467  1
  C  C532  1  0.72247121  0.03783201  0.71169173  1
  C  C533  1  0.75096534  0.24504383  0.85771580  1
  H  H534  1  0.70799828  0.06775996  0.69481311  1
  C  C535  1  0.55665676  0.17423875  0.89159445  1
  H  H536  1  0.98977317  0.01609094  0.52620919  1
  C  C537  1  0.53757681  0.19786127  0.95749751  1
  C  C538  1  0.52811216  0.14754463  0.71164133  1
  H  H539  1  0.77208009  0.12589180  0.97548980  1
  O  O540  1  0.83479713  0.02743596  0.52506188  1
  C  C541  1  0.51083569  0.14712640  0.56096820  1
  C  C542  1  0.99681188  0.01969027  0.65996025  1
  H  H543  1  0.98748013  0.06770059  0.90666788  1
  C  C544  1  0.98670670  0.03825123  0.93313615  1
  C  C545  1  0.57963071  0.24928399  0.52606590  1
  C  C546  1  0.50897769  0.23259784  0.50147844  1
  C  C547  1  0.88821493  0.29781021  0.36051227  1
  C  C548  1  0.86972140  0.30339921  0.02235487  1
  N  N549  1  0.81078094  0.30834427  0.36073372  1
  H  H550  1  0.84709106  0.42759715  0.43194057  1
  H  H551  1  0.83690934  0.30475820  0.19680580  1
  H  H552  1  0.52385574  0.46648576  0.37032384  1
  H  H553  1  0.73733572  0.35707607  0.22837568  1
  H  H554  1  0.71866735  0.42306463  0.10678218  1
  O  O555  1  0.50776301  0.25050254  0.06748799  1
  C  C556  1  0.64776783  0.26952675  0.17298325  1
  H  H557  1  0.93052165  0.35116543  0.41011888  1
  C  C558  1  0.96771945  0.26838311  0.18877129  1
  C  C559  1  0.73127597  0.36687122  0.37508604  1
  C  C560  1  0.62626850  0.25526900  0.45870714  1
  C  C561  1  0.91204371  0.42524113  0.24642765  1
  C  C562  1  0.62992970  0.46853936  0.09948525  1
  H  H563  1  0.65962284  0.41915041  0.35594121  1
  C  C564  1  0.56989407  0.27740577  0.20142537  1
  H  H565  1  0.90763973  0.35000225  0.28161381  1
  H  H566  1  0.52964923  0.25555665  0.20997964  1
  C  C567  1  0.69206300  0.33530214  0.21277389  1
  C  C568  1  0.63741595  0.35102422  0.41989437  1
  C  C569  1  0.94653097  0.32280751  0.39327618  1
  C  C570  1  0.96695657  0.41398574  0.04135061  1
  H  H571  1  0.96874039  0.41244367  0.23165069  1
  C  C572  1  0.89751851  0.46428857  0.22573299  1
  C  C573  1  0.87624078  0.43056315  0.49086510  1
  C  C574  1  0.71232361  0.29782154  0.18208383  1
  N  N575  1  0.70544870  0.35864817  0.45577188  1
  H  H576  1  0.88571631  0.48485778  0.08443419  1
  C  C577  1  0.77347016  0.42338203  0.30174560  1
  C  C578  1  0.90337805  0.33995064  0.02724737  1
  C  C579  1  0.51858809  0.41105336  0.09762719  1
  C  C580  1  0.88946602  0.41439847  0.01292097  1
  C  C581  1  0.79955994  0.34604017  0.34132753  1
  C  C582  1  0.85695236  0.37645560  0.00761540  1
  C  C583  1  0.82162101  0.47860068  0.23055822  1
  C  C584  1  0.85561327  0.36608724  0.29814691  1
  C  C585  1  0.84932679  0.40493857  0.28013041  1
  H  H586  1  0.61634876  0.37066626  0.10037944  1
  H  H587  1  0.60378673  0.37593976  0.24469328  1
  C  C588  1  0.54733063  0.48002491  0.09933892  1
  C  C589  1  0.61562463  0.34663691  0.22223534  1
  C  C590  1  0.79171427  0.28538446  0.18188713  1
  C  C591  1  0.60062650  0.40120744  0.10000016  1
  C  C592  1  0.98011536  0.33950706  0.05183500  1
  C  C593  1  0.55744950  0.31690081  0.21588966  1
  H  H594  1  0.92196781  0.28430513  0.22066965  1
  O  O595  1  0.56067363  0.44586863  0.36427254  1
  C  C596  1  0.71421667  0.40447368  0.34186073  1
  C  C597  1  0.75895805  0.45927210  0.26460408  1
  C  C598  1  0.65711218  0.43000065  0.10290784  1
  Zn  Zn599  1  0.71910714  0.26950713  0.39054517  1
  H  H600  1  0.70007682  0.47413213  0.26447676  1
  O  O601  1  0.94175122  0.43749841  0.48138950  1
  O  O602  1  0.57040555  0.35314859  0.42243861  1
  C  C603  1  0.90116296  0.25784229  0.34309955  1
  H  H604  1  0.94549323  0.48530461  0.20443888  1
  H  H605  1  0.86038839  0.44161203  0.00138060  1
  H  H606  1  0.57285881  0.43901675  0.41951496  1
  C  C607  1  0.69038671  0.49497096  0.07859939  1
  H  H608  1  0.74873883  0.48346605  0.07433249  1
  C  C609  1  0.78955325  0.30207710  0.00696676  1
  H  H610  1  0.90228864  0.27832438  0.04457466  1
  H  H611  1  0.76119056  0.27490896  0.00480531  1
  H  H612  1  0.84499483  0.29661952  0.49478485  1
  C  C613  1  0.97844694  0.41848625  0.71904720  1
  C  C614  1  0.96937956  0.38494427  0.86209612  1
  C  C615  1  0.64610855  0.37217687  0.87182974  1
  H  H616  1  0.60944786  0.28701601  0.76240977  1
  C  C617  1  0.91416177  0.32257544  0.58969147  1
  C  C618  1  0.82894031  0.39424676  0.69713563  1
  H  H619  1  0.72926964  0.49465503  0.53557169  1
  C  C620  1  0.63434805  0.31481981  0.77374511  1
  C  C621  1  0.93621005  0.39518922  0.78531652  1
  C  C622  1  0.69516205  0.38836599  0.81367402  1
  C  C623  1  0.62700509  0.45965470  0.77247924  1
  O  O624  1  0.52007503  0.29034132  0.88789593  1
  H  H625  1  0.72062045  0.41643421  0.82599955  1
  C  C626  1  0.54841004  0.41486350  0.53898890  1
  N  N627  1  0.82946439  0.42021085  0.55868858  1
  H  H628  1  0.69926508  0.31983166  0.65995630  1
  C  C629  1  0.68458651  0.33254816  0.71839225  1
  C  C630  1  0.76084745  0.28305189  0.82733145  1
  C  C631  1  0.80986677  0.28851007  0.75740719  1
  C  C632  1  0.86919068  0.41552755  0.62856002  1
  H  H633  1  0.93488566  0.36696039  0.90500687  1
  H  H634  1  0.83113788  0.36527548  0.81773440  1
  H  H635  1  0.81856674  0.31634947  0.72675666  1
  H  H636  1  0.87582300  0.26483544  0.66022056  1
  H  H637  1  0.53838402  0.38405215  0.53095134  1
  N  N638  1  0.75595142  0.38675625  0.67440262  1
  H  H639  1  0.98377693  0.34232530  0.68819459  1
  H  H640  1  0.73280177  0.30752667  0.85913129  1
  C  C641  1  0.86237190  0.38208891  0.77099271  1
  H  H642  1  0.63406824  0.43942377  0.72258936  1
  C  C643  1  0.71107208  0.36924588  0.73761386  1
  Zn  Zn644  1  0.71566430  0.39786301  0.56023933  1
  C  C645  1  0.61699610  0.33520507  0.84617630  1
  C  C646  1  0.89354482  0.29231999  0.53883547  1
  C  C647  1  0.67867082  0.49147766  0.78314210  1
  C  C648  1  0.60922624  0.46831417  0.54053098  1
  H  H649  1  0.75604427  0.47096281  0.68223213  1
  H  H650  1  0.62468949  0.38714932  0.92630151  1
  H  H651  1  0.97041513  0.44762725  0.59656919  1
  C  C652  1  0.99430243  0.25141784  0.60954366  1
  H  H653  1  0.88498299  0.35189520  0.58100240  1
  N  N654  1  0.61591508  0.42985359  0.55213655  1
  H  H655  1  0.54923907  0.42421454  0.83826874  1
  C  C656  1  0.94308886  0.42913362  0.64400331  1
  C  C657  1  0.97110056  0.31750907  0.64856516  1
  C  C658  1  0.55974936  0.47935299  0.89887719  1
  C  C659  1  0.57930604  0.45130118  0.83794368  1
  C  C660  1  0.92780628  0.25547747  0.55082201  1
  C  C661  1  0.55392126  0.32059671  0.90087739  1
  C  C662  1  0.66677315  0.49811662  0.53191357  1
  C  C663  1  0.74120806  0.49251063  0.72882781  1
  C  C664  1  0.84603866  0.25949940  0.71802830  1
  H  H665  1  0.59953739  0.25428582  0.59174205  1
  C  C666  1  0.52579170  0.47872024  0.52853021  1
  O  O667  1  0.52613513  0.33973110  0.95714083  1
  H  H668  1  0.52185104  0.47004112  0.94793715  1
  H  H669  1  0.74561076  0.39711577  0.97334726  1
  C  C670  1  0.74562990  0.33486034  0.98456409  1
  C  C671  1  0.78011883  0.37178795  0.98392819  1
  H  H672  1  0.68612459  0.32909588  0.97003410  1
  H  H673  1  0.61106851  0.68975730  0.12362495  1
  H  H674  1  0.69992839  0.72490214  0.14450575  1
  C  C675  1  0.80649756  0.61186414  0.01438666  1
  O  O676  1  0.97367236  0.62388203  0.13997997  1
  N  N677  1  0.58500660  0.58497889  0.09851333  1
  H  H678  1  0.88617696  0.55936896  0.11549176  1
  C  C679  1  0.65090143  0.59770798  0.07296575  1
  C  C680  1  0.52922253  0.51913410  0.09624826  1
  N  N681  1  0.70425448  0.56937360  0.05259942  1
  C  C682  1  0.56857952  0.69393455  0.17184542  1
  C  C683  1  0.59082654  0.54542722  0.09264849  1
  C  C684  1  0.93864417  0.54210409  0.09599816  1
  C  C685  1  0.67301076  0.53342183  0.07266234  1
  N  N686  1  0.56607739  0.73046514  0.21493436  1
  C  C687  1  0.93624791  0.50284199  0.08144846  1
  H  H688  1  0.66012519  0.62798114  0.06569012  1
  H  H689  1  0.57354561  0.58922567  0.21797459  1
  O  O690  1  0.55438530  0.59455366  0.27608980  1
  H  H691  1  0.78712951  0.63550246  0.05249823  1
  H  H692  1  0.81628371  0.50849315  0.21065913  1
  O  O693  1  0.59728778  0.67044841  0.36386740  1
  H  H694  1  0.57433948  0.64595415  0.34983440  1
  H  H695  1  0.58234079  0.68534245  0.31968081  1
  C  C696  1  0.77499437  0.57422717  0.01194222  1
  C  C697  1  0.53183011  0.58178271  0.49456068  1
  H  H698  1  0.55946022  0.71214978  0.01562987  1
  N  N699  1  0.51181777  0.67197312  0.19555266  1
  C  C700  1  0.58836612  0.61051792  0.49292190  1
  H  H701  1  0.57189282  0.63913653  0.47088924  1
  C  C702  1  0.50253642  0.73202329  0.25931187  1
  O  O703  1  0.97925720  0.73819579  0.18670047  1
  H  H704  1  0.61931332  0.66137231  0.81680404  1
  C  C705  1  0.54363828  0.56392530  0.72503800  1
  C  C706  1  0.59791309  0.51324179  0.90351549  1
  H  H707  1  0.72133317  0.62041389  0.88703043  1
  C  C708  1  0.63785581  0.53612627  0.51942947  1
  C  C709  1  0.66475017  0.60485633  0.51206915  1
  H  H710  1  0.78554446  0.51554128  0.96129026  1
  C  C711  1  0.62232720  0.62184807  0.71636113  1
  H  H712  1  0.57998565  0.53435339  0.94772367  1
  O  O713  1  0.99018901  0.71685649  0.95381217  1
  C  C714  1  0.56057924  0.72355196  0.95258644  1
  N  N715  1  0.78768847  0.59558005  0.75157080  1
  C  C716  1  0.75008399  0.64562589  0.85146646  1
  H  H717  1  0.54722771  0.64866698  0.94492198  1
  C  C718  1  0.77534981  0.52928648  0.73199914  1
  C  C719  1  0.74646801  0.68266340  0.88329855  1
  H  H720  1  0.66212537  0.58588632  0.86686851  1
  C  C721  1  0.51971140  0.62401271  0.91498663  1
  H  H722  1  0.90123927  0.52909184  0.88380660  1
  H  H723  1  0.88406331  0.65940441  0.69994094  1
  C  C724  1  0.83823716  0.66420843  0.74480292  1
  C  C725  1  0.78828887  0.63475551  0.78008821  1
  H  H726  1  0.75522582  0.56141116  0.51723650  1
  C  C727  1  0.84085866  0.58030904  0.69993148  1
  H  H728  1  0.88994066  0.59481541  0.67092574  1
  C  C729  1  0.83798775  0.69997611  0.77984965  1
  C  C730  1  0.68683480  0.55878830  0.83621937  1
  C  C731  1  0.97597884  0.59844942  0.87381698  1
  N  N732  1  0.83679330  0.54270109  0.68831686  1
  C  C733  1  0.59923275  0.63287050  0.79512220  1
  H  H734  1  0.86941394  0.72344761  0.74711166  1
  C  C735  1  0.65646046  0.52136808  0.84476516  1
  C  C736  1  0.74586050  0.56375977  0.77887562  1
  H  H737  1  0.65846167  0.63981790  0.67713663  1
  C  C738  1  0.79227086  0.71095687  0.84573298  1
  C  C739  1  0.80949262  0.54441035  0.96553792  1
  H  H740  1  0.62167800  0.57471954  0.62681730  1
  C  C741  1  0.59513701  0.58641920  0.68137373  1
  H  H742  1  0.71122578  0.68631121  0.93809787  1
  C  C743  1  0.90494764  0.58963862  0.92109931  1
  C  C744  1  0.87498940  0.55280562  0.91872236  1
  C  C745  1  0.54416588  0.61111804  0.83929256  1
  H  H746  1  0.52930921  0.53622159  0.69649776  1
  C  C747  1  0.50974998  0.57488801  0.79915779  1
  C  C748  1  0.86877290  0.61879482  0.96466753  1
  C  C749  1  0.97171208  0.61244443  0.57076909  1
  C  C750  1  0.69364458  0.56686329  0.51644426  1
  C  C751  1  0.51356238  0.71047221  0.88857281  1
  O  O752  1  0.99599857  0.71191291  0.69189809  1
  H  H753  1  0.89727641  0.64714259  0.96830468  1
  C  C754  1  0.55275602  0.54333806  0.50278423  1
  C  C755  1  0.52051010  0.72716241  0.80860262  1
  H  H756  1  0.70441283  0.63200983  0.51281898  1
  C  C757  1  0.74554283  0.89976172  0.40693345  1
  C  C758  1  0.68377152  0.75483590  0.15796766  1
  C  C759  1  0.59267829  0.80073806  0.22457106  1
  H  H760  1  0.78212476  0.88296735  0.36738410  1
  H  H761  1  0.57099583  0.95190612  0.30249988  1
  O  O762  1  0.82978999  0.93662729  0.28424161  1
  O  O763  1  0.97778525  0.97736420  0.34279086  1
  C  C764  1  0.74525076  0.93966149  0.39734166  1
  O  O765  1  0.76958571  0.96734268  0.05854443  1
  H  H766  1  0.92484960  0.85804759  0.04186306  1
  C  C767  1  0.52547549  0.86930289  0.45012103  1
  O  O768  1  0.78747411  0.99271543  0.32443648  1
  C  C769  1  0.76530231  0.85409722  0.14467491  1
  H  H770  1  0.93818062  0.97361035  0.30327261  1
  O  O771  1  0.94107799  0.95257296  0.15320532  1
  C  C772  1  0.78955937  0.95663903  0.33085923  1
  H  H773  1  0.53448044  0.80655142  0.24830403  1
  Zn  Zn774  1  0.82952915  0.93094833  0.15359422  1
  C  C775  1  0.61523017  0.76247366  0.20121699  1
  C  C776  1  0.64385500  0.82975016  0.20725565  1
  N  N777  1  0.55497122  0.87630978  0.37936804  1
  C  C778  1  0.55793453  0.86964133  0.03011799  1
  O  O779  1  0.74276988  0.88871118  0.15283670  1
  C  C780  1  0.73082346  0.78447894  0.13089529  1
  C  C781  1  0.98557371  0.86085019  0.02186772  1
  H  H782  1  0.88538252  0.89955820  0.43583205  1
  C  C783  1  0.97198307  0.99416047  0.03815898  1
  H  H784  1  0.63110758  0.85847918  0.22745472  1
  O  O785  1  0.82516957  0.84696734  0.10495441  1
  H  H786  1  0.63791814  0.95587765  0.01687118  1
  C  C787  1  0.71164408  0.82063501  0.16029933  1
  C  C788  1  0.57320475  0.97835559  0.33651100  1
  C  C789  1  0.70290087  0.96322815  0.45132339  1
  H  H790  1  0.94327579  0.96429150  0.44625844  1
  C  C791  1  0.52028042  0.90705781  0.40534660  1
  C  C792  1  0.71045445  0.88187442  0.47197258  1
  C  C793  1  0.94977737  0.98526480  0.12570799  1
  H  H794  1  0.62827264  0.81837704  0.00772935  1
  H  H795  1  0.78295850  0.78093296  0.09226773  1
  C  C796  1  0.52439584  0.98158675  0.40699040  1
  Zn  Zn797  1  0.55081980  0.81241688  0.49036966  1
  H  H798  1  0.70290198  0.99377571  0.44214497  1
  C  C799  1  0.50021321  0.84954465  0.07949455  1
  H  H800  1  0.70489660  0.85120422  0.47815077  1
  C  C801  1  0.55096882  0.91084514  0.02175901  1
  H  H802  1  0.50528436  0.81975865  0.10363142  1
  H  H803  1  0.89787138  0.75828925  0.00893450  1
  C  C804  1  0.89527267  0.91260237  0.49604220  1
  O  O805  1  0.91109143  0.78644432  0.01398742  1
  Zn  Zn806  1  0.82222588  0.82173685  0.98755993  1
  H  H807  1  0.53635149  0.94996548  0.59013350  1
  C  C808  1  0.52592100  0.75530357  0.64699174  1
  O  O809  1  0.76759649  0.76146787  0.93909360  1
  C  C810  1  0.69958256  0.86204881  0.64380745  1
  O  O811  1  0.80871657  0.77933147  0.82162536  1
  C  C812  1  0.94718605  0.86849553  0.88055564  1
  N  N813  1  0.74203781  0.85195286  0.91466480  1
  C  C814  1  0.54287010  0.93276025  0.64671006  1
  H  H815  1  0.89453334  0.88512409  0.69862645  1
  H  H816  1  0.57178567  0.86784239  0.85611339  1
  H  H817  1  0.94196056  0.94059246  0.78820386  1
  C  C818  1  0.50196586  0.91190616  0.78218342  1
  N  N819  1  0.67964377  0.85890450  0.71942598  1
  H  H820  1  0.75102884  0.84915761  0.61454631  1
  C  C821  1  0.60345322  0.77821907  0.85912432  1
  H  H822  1  0.78034309  0.87369317  0.90075806  1
  O  O823  1  0.96165939  0.87506835  0.81010435  1
  N  N824  1  0.65846644  0.89261498  0.61084265  1
  C  C825  1  0.60246367  0.90688901  0.66063446  1
  C  C826  1  0.89917833  0.90456148  0.64644550  1
  H  H827  1  0.74412152  0.92292329  0.72879661  1
  H  H828  1  0.64084877  0.77203901  0.98327572  1
  C  C829  1  0.70142785  0.97704197  0.78214228  1
  C  C830  1  0.66662149  0.90998314  0.93203728  1
  H  H831  1  0.79590602  0.98686334  0.92330697  1
  O  O832  1  0.61115554  0.96770057  0.90108424  1
  C  C833  1  0.93499755  0.94159416  0.65370900  1
  C  C834  1  0.56148215  0.88431942  0.79993458  1
  O  O835  1  0.88035402  0.86720518  0.91017346  1
  C  C836  1  0.78753977  0.75329977  0.86975379  1
  C  C837  1  0.61538770  0.88118971  0.73349496  1
  C  C838  1  0.67844309  0.86902764  0.95185399  1
  N  N839  1  0.70432680  0.92363317  0.87323160  1
  C  C840  1  0.66563093  0.95554412  0.85549352  1
  H  H841  1  0.58462676  0.80621656  0.69637740  1
  C  C842  1  0.97908517  0.99437136  0.73224318  1
  C  C843  1  0.94946470  0.95716265  0.73150729  1
  H  H844  1  0.85732979  0.86153408  0.56527942  1
  C  C845  1  0.88022873  0.89167778  0.56810039  1
  Zn  Zn846  1  0.74269370  0.82991454  0.79400734  1
  C  C847  1  0.74316745  0.95555955  0.72413060  1
  H  H848  1  0.51170287  0.88231375  0.58114560  1
  C  C849  1  0.62286802  0.84950177  0.99685407  1
  H  H850  1  0.81472024  0.96186310  0.61420555  1
  C  C851  1  0.67300880  0.90577225  0.52975817  1
  H  H852  1  0.64175916  0.96735723  0.56331807  1
  C  C853  1  0.78082472  0.97603298  0.66161314  1
  C  C854  1  0.95033387  0.96453863  0.57768744  1
  C  C855  1  0.56343438  0.77792912  0.70904567  1
  C  C856  1  0.61132770  0.93362401  0.97659088  1
  H  H857  1  0.63827229  0.80520981  0.84852753  1
  C  C858  1  0.92829604  0.94848329  0.50001619  1
  N  N859  1  0.52773481  0.75903722  0.55994597  1
  C  C860  1  0.56510632  0.76157822  0.78798523  1
  C  C861  1  0.66754890  0.94687044  0.51807874  1
  C  C862  1  0.60330049  0.75889981  0.93417084  1
  C  C863  1  0.99614264  0.96294615  0.98958996  1
