# generated using pymatgen
data_ZnH12C18N2O3
_symmetry_space_group_name_H-M   'P 1'
_cell_length_a   23.25589630
_cell_length_b   24.22334984
_cell_length_c   15.84526228
_cell_angle_alpha   90.00000000
_cell_angle_beta   90.00000000
_cell_angle_gamma   90.00000000
_symmetry_Int_Tables_number   1
_chemical_formula_structural   ZnH12C18N2O3
_chemical_formula_sum   'Zn24 H288 C432 N48 O72'
_cell_volume   8926.20210660
_cell_formula_units_Z   24
loop_
 _symmetry_equiv_pos_site_id
 _symmetry_equiv_pos_as_xyz
  1  'x, y, z'
loop_
 _atom_site_type_symbol
 _atom_site_label
 _atom_site_symmetry_multiplicity
 _atom_site_fract_x
 _atom_site_fract_y
 _atom_site_fract_z
 _atom_site_occupancy
  C  C0  1  0.06003271  0.17596189  0.41659239  1
  C  C1  1  0.40117119  0.10912162  0.04194468  1
  H  H2  1  0.23759750  0.03766358  0.07645082  1
  C  C3  1  0.08449426  0.20157557  0.34254200  1
  H  H4  1  0.13335424  0.06190838  0.42377014  1
  Zn  Zn5  1  0.34442990  0.17246012  0.37155455  1
  O  O6  1  0.13637225  0.09966857  0.39934756  1
  C  C7  1  0.42360804  0.04552805  0.48220771  1
  C  C8  1  0.47038896  0.12554002  0.16039731  1
  C  C9  1  0.01639962  0.20286642  0.46436487  1
  N  N10  1  0.40027207  0.05224795  0.17380300  1
  Zn  Zn11  1  0.21579829  0.12030456  0.44609272  1
  N  N12  1  0.48393136  0.17248611  0.44850488  1
  C  C13  1  0.46080563  0.12038148  0.44380668  1
  C  C14  1  0.27016977  0.11575510  0.03140400  1
  H  H15  1  0.30402991  0.08509708  0.45754848  1
  C  C16  1  0.35091130  0.21722913  0.20207583  1
  H  H17  1  0.27160380  0.13782190  0.09435317  1
  C  C18  1  0.35358125  0.02549607  0.13803482  1
  O  O19  1  0.31716839  0.19124962  0.15874976  1
  C  C20  1  0.05163347  0.03019861  0.02452261  1
  O  O21  1  0.29393370  0.10271780  0.40462634  1
  O  O22  1  0.20448632  0.20839819  0.42433969  1
  C  C23  1  0.41917303  0.09550045  0.12344573  1
  H  H24  1  0.34065618  0.04767353  0.07691806  1
  C  C25  1  0.08114168  0.12408909  0.45295537  1
  H  H26  1  0.05272481  0.00891420  0.35536325  1
  N  N27  1  0.43516864  0.07258600  0.41608219  1
  O  O28  1  0.38524008  0.19161801  0.25369346  1
  H  H29  1  0.12004581  0.18037538  0.30895010  1
  C  C30  1  0.43268718  0.15315152  0.00492207  1
  Zn  Zn31  1  0.44518497  0.03493409  0.29857603  1
  H  H32  1  0.36872908  0.08936429  0.00830595  1
  H  H33  1  0.31494954  0.21734778  0.01227853  1
  C  C34  1  0.47984102  0.18725420  0.04862649  1
  C  C35  1  0.25373576  0.06018569  0.01963754  1
  H  H36  1  0.01262829  0.10161182  0.29737274  1
  C  C37  1  0.49866364  0.21717822  0.40281239  1
  N  N38  1  0.49714162  0.09751758  0.22492606  1
  H  H39  1  0.49320311  0.07798994  0.05326675  1
  C  C40  1  0.22784193  0.23777592  0.36889125  1
  C  C41  1  0.49672193  0.17382264  0.13291827  1
  O  O42  1  0.27258947  0.22459269  0.33055227  1
  O  O43  1  0.34984760  0.19156501  0.49698325  1
  O  O44  1  0.15713307  0.24137580  0.63606657  1
  C  C45  1  0.26851146  0.05542034  0.86754115  1
  C  C46  1  0.41923221  0.03650896  0.78940356  1
  H  H47  1  0.06094370  0.12583359  0.88737221  1
  C  C48  1  0.00916346  0.22157235  0.81873796  1
  H  H49  1  0.26511846  0.03386967  0.80927406  1
  C  C50  1  0.47560991  0.11584745  0.74323340  1
  N  N51  1  0.10252489  0.04951559  0.90898241  1
  C  C52  1  0.44558601  0.20919881  0.87827622  1
  H  H53  1  0.46651067  0.08891714  0.87276115  1
  O  O54  1  0.24670981  0.11887638  0.57624066  1
  C  C55  1  0.24219067  0.07624422  0.62038419  1
  C  C56  1  0.32615668  0.22383146  0.87701321  1
  C  C57  1  0.46012008  0.10339763  0.65940406  1
  C  C58  1  0.28579585  0.11273330  0.86881966  1
  C  C59  1  0.14049379  0.05375634  0.83805503  1
  C  C60  1  0.06805275  0.09298474  0.93085768  1
  C  C61  1  0.19204264  0.01612294  0.71960507  1
  O  O62  1  0.05209234  0.16341758  0.71084633  1
  C  C63  1  0.42396553  0.05364548  0.63779756  1
  C  C64  1  0.17688045  0.11687612  0.73610471  1
  C  C65  1  0.30894738  0.19711070  0.95199673  1
  H  H66  1  0.46646533  0.24379447  0.63443794  1
  C  C67  1  0.20124773  0.07064780  0.69398682  1
  H  H68  1  0.40447712  0.01294556  0.84229166  1
  C  C69  1  0.25501935  0.02796817  0.94355957  1
  C  C70  1  0.14926215  0.10955260  0.81061755  1
  H  H71  1  0.39222356  0.13467853  0.87807516  1
  C  C72  1  0.15975814  0.00636460  0.79398924  1
  C  C73  1  0.42230158  0.16283653  0.91751727  1
  O  O74  1  0.27176448  0.03274381  0.60620767  1
  H  H75  1  0.18533267  0.15957154  0.71608298  1
  H  H76  1  0.29667571  0.11128007  0.72886082  1
  H  H77  1  0.12877137  0.14449908  0.84743888  1
  C  C78  1  0.29921465  0.13616878  0.78950496  1
  C  C79  1  0.32222898  0.19244727  0.79383632  1
  C  C80  1  0.45400999  0.08214338  0.80720540  1
  Zn  Zn81  1  0.32021519  0.21226587  0.60482435  1
  C  C82  1  0.40403854  0.02456098  0.70645433  1
  N  N83  1  0.33666513  0.22790403  0.73153044  1
  C  C84  1  0.02242442  0.17101996  0.77001806  1
  C  C85  1  0.40909663  0.02400109  0.56085813  1
  C  C86  1  0.48708640  0.14511785  0.61088275  1
  C  C87  1  0.09652131  0.00583223  0.96717704  1
  C  C88  1  0.47985601  0.14885839  0.52215852  1
  C  C89  1  0.28658528  0.14243472  0.95351383  1
  H  H90  1  0.49622632  0.15428822  0.75445905  1
  N  N91  1  0.03317567  0.08285976  0.99831759  1
  O  O92  1  0.06473767  0.09898907  0.51057908  1
  C  C93  1  0.48119053  0.24532660  0.92768298  1
  H  H94  1  0.43524923  0.22008909  0.81378899  1
  H  H95  1  0.00068547  0.18536159  0.52554044  1
  H  H96  1  0.38685280  0.21189025  0.50741086  1
  C  C97  1  0.34840818  0.27912728  0.20100497  1
  C  C98  1  0.30958101  0.30545244  0.14397397  1
  C  C99  1  0.21170930  0.29614214  0.36486211  1
  H  H100  1  0.44085098  0.34408134  0.09003523  1
  C  C101  1  0.15643239  0.45907053  0.10087649  1
  C  C102  1  0.16220488  0.32024025  0.39975139  1
  C  C103  1  0.39175335  0.48241778  0.23030189  1
  H  H104  1  0.21009735  0.49688932  0.44751508  1
  C  C105  1  0.01915402  0.36119410  0.27331707  1
  H  H106  1  0.08590624  0.27658154  0.27392530  1
  C  C107  1  0.08787281  0.40789635  0.18713951  1
  C  C108  1  0.42675999  0.34608249  0.02347173  1
  H  H109  1  0.28884956  0.31059737  0.28631131  1
  C  C110  1  0.04004775  0.45004384  0.16546359  1
  H  H111  1  0.20164897  0.46028662  0.07754323  1
  C  C112  1  0.14617148  0.37362536  0.38418573  1
  C  C113  1  0.31136624  0.36177686  0.14166614  1
  C  C114  1  0.06374863  0.25448416  0.32186002  1
  C  C115  1  0.28253889  0.44345963  0.48353906  1
  H  H116  1  0.39145300  0.45520989  0.29147818  1
  N  N117  1  0.17538195  0.46457136  0.32564957  1
  C  C118  1  0.07426442  0.36213536  0.23775804  1
  C  C119  1  0.05956850  0.49623010  0.11604750  1
  H  H120  1  0.37436551  0.27398785  0.02919203  1
  H  H121  1  0.25943438  0.40687427  0.47256899  1
  C  C122  1  0.01830353  0.27916431  0.37012590  1
  H  H123  1  0.10925327  0.33594119  0.25632068  1
  C  C124  1  0.25503027  0.49537773  0.47430831  1
  C  C125  1  0.48655537  0.43531186  0.01588973  1
  H  H126  1  0.42428881  0.29319798  0.28472976  1
  C  C127  1  0.23860930  0.38539298  0.30861724  1
  C  C128  1  0.18757198  0.40920229  0.34305652  1
  H  H129  1  0.43634760  0.38740907  0.25994288  1
  H  H130  1  0.27907950  0.38530628  0.10442740  1
  H  H131  1  0.05541100  0.43762773  0.36245251  1
  C  C132  1  0.32612755  0.47588043  0.10736673  1
  N  N133  1  0.36027600  0.45220830  0.17100841  1
  H  H134  1  0.13025135  0.29032220  0.42629449  1
  H  H135  1  0.17836266  0.38208912  0.16470517  1
  H  H136  1  0.28060252  0.28340714  0.10140245  1
  C  C137  1  0.49671207  0.27180412  0.43887317  1
  C  C138  1  0.39869759  0.36653356  0.22992250  1
  C  C139  1  0.14540579  0.41459707  0.15551442  1
  C  C140  1  0.39128609  0.31019808  0.24166818  1
  C  C141  1  0.24787223  0.32958957  0.31602896  1
  H  H142  1  0.27196011  0.40875761  0.27312766  1
  H  H143  1  0.11023768  0.39059523  0.41864972  1
  H  H144  1  0.26480217  0.49260977  0.28260886  1
  C  C145  1  0.35606551  0.39387932  0.18095558  1
  H  H146  1  0.05915268  0.43194153  0.02429998  1
  C  C147  1  0.31666036  0.44497928  0.03259039  1
  H  H148  1  0.33545473  0.40449461  0.02005981  1
  C  C149  1  0.06795299  0.48007700  0.34857475  1
  C  C150  1  0.12402833  0.49503004  0.32742419  1
  H  H151  1  0.30494937  0.33066502  0.47957145  1
  C  C152  1  0.17310302  0.33836386  0.62350325  1
  C  C153  1  0.19570326  0.43590033  0.62322870  1
  C  C154  1  0.13701252  0.44190995  0.64981498  1
  C  C155  1  0.11584797  0.34697394  0.65142777  1
  C  C156  1  0.09438387  0.40075320  0.66194384  1
  C  C157  1  0.44200715  0.41440411  0.64984869  1
  H  H158  1  0.04980869  0.40939012  0.67632872  1
  C  C159  1  0.19373570  0.49687025  0.85165088  1
  H  H160  1  0.22597452  0.46890517  0.61589916  1
  C  C161  1  0.05321246  0.39827205  0.97874240  1
  C  C162  1  0.21291995  0.38056531  0.61170387  1
  H  H163  1  0.20542496  0.42045098  0.79065069  1
  H  H164  1  0.37692442  0.30638553  0.72123813  1
  C  C165  1  0.42223217  0.40675790  0.89997235  1
  O  O166  1  0.32261083  0.42172248  0.72528744  1
  N  N167  1  0.35936579  0.38995865  0.54607884  1
  C  C168  1  0.35819000  0.27297105  0.76468870  1
  N  N169  1  0.34867010  0.27501152  0.85137171  1
  H  H170  1  0.43821376  0.44319484  0.86605050  1
  C  C171  1  0.04314057  0.48666843  0.78512387  1
  C  C172  1  0.38760352  0.30899518  0.98875778  1
  C  C173  1  0.44600701  0.39416311  0.97991573  1
  C  C174  1  0.18936119  0.27836422  0.61538184  1
  C  C175  1  0.36679932  0.31935329  0.90415723  1
  H  H176  1  0.25531307  0.37027301  0.58854912  1
  H  H177  1  0.03489457  0.44062439  0.78537863  1
  H  H178  1  0.08426553  0.31267588  0.65987401  1
  C  C179  1  0.22026834  0.44511323  0.84279631  1
  C  C180  1  0.27651728  0.46266638  0.97000835  1
  C  C181  1  0.41535580  0.31835006  0.59868029  1
  H  H182  1  0.12141382  0.43049021  0.90759060  1
  H  H183  1  0.28499631  0.38532944  0.89552660  1
  H  H184  1  0.12741107  0.35478676  0.79647543  1
  N  N185  1  0.36660828  0.29456434  0.55872030  1
  C  C186  1  0.45821556  0.28994691  0.64037316  1
  C  C187  1  0.05140159  0.30990548  0.85557957  1
  H  H188  1  0.43041908  0.45909725  0.65789581  1
  C  C189  1  0.38728505  0.36672669  0.86148717  1
  C  C190  1  0.26384036  0.42644279  0.90166387  1
  C  C191  1  0.40695535  0.37879281  0.60042977  1
  H  H192  1  0.36838263  0.37255419  0.79564332  1
  C  C193  1  0.48954089  0.38662248  0.68930344  1
  H  H194  1  0.33455689  0.41984557  0.66794954  1
  H  H195  1  0.49345723  0.28619559  0.90181840  1
  H  H196  1  0.33340897  0.45718026  0.74410222  1
  C  C197  1  0.05241434  0.26316123  0.80058682  1
  C  C198  1  0.09219992  0.35345162  0.84870182  1
  C  C199  1  0.09040573  0.39659270  0.90657264  1
  O  O200  1  0.24206311  0.27291429  0.59953548  1
  C  C201  1  0.01163977  0.31133529  0.93244671  1
  N  N202  1  0.11938367  0.49755171  0.67015633  1
  C  C203  1  0.34104038  0.33852979  0.51983296  1
  C  C204  1  0.49297966  0.32512045  0.69009061  1
  C  C205  1  0.01340438  0.35726449  0.98992532  1
  H  H206  1  0.08294272  0.25867302  0.74731708  1
  H  H207  1  0.41684632  0.49321004  0.55956699  1
  C  C208  1  0.33910911  0.44169091  0.51716715  1
  H  H209  1  0.47633360  0.28061188  0.50033285  1
  C  C210  1  0.37039562  0.49080425  0.53589434  1
  C  C211  1  0.28716753  0.54215581  0.49164930  1
  O  O212  1  0.28045720  0.64583812  0.47500367  1
  H  H213  1  0.05714693  0.59933373  0.47286358  1
  C  C214  1  0.09931368  0.59994840  0.31028772  1
  N  N215  1  0.30546939  0.56502733  0.18145674  1
  C  C216  1  0.04464092  0.58599298  0.33955283  1
  H  H217  1  0.17290104  0.62735467  0.03183865  1
  C  C218  1  0.02712366  0.52625164  0.35277926  1
  C  C219  1  0.21774834  0.50206153  0.29813199  1
  O  O220  1  0.40767585  0.58388419  0.07561579  1
  N  N221  1  0.30074045  0.67071636  0.24160619  1
  H  H222  1  0.11228210  0.64230516  0.30402739  1
  C  C223  1  0.28431573  0.72196108  0.20862489  1
  O  O224  1  0.48234567  0.62247714  0.42861147  1
  O  O225  1  0.42434645  0.52016959  0.22603421  1
  N  N226  1  0.19578788  0.55189529  0.28624109  1
  O  O227  1  0.41953853  0.69319596  0.21240769  1
  H  H228  1  0.03138688  0.53052146  0.10071331  1
  H  H229  1  0.17935795  0.67630429  0.28122861  1
  C  C230  1  0.29634127  0.53016347  0.11792469  1
  Zn  Zn231  1  0.32844864  0.65009636  0.35728170  1
  H  H232  1  0.01557594  0.67305360  0.35769849  1
  C  C233  1  0.46965759  0.71830285  0.40401537  1
  Zn  Zn234  1  0.24480189  0.60436120  0.24118610  1
  Zn  Zn235  1  0.36787431  0.62457130  0.17698577  1
  C  C236  1  0.44521698  0.71307967  0.02057907  1
  H  H237  1  0.34250214  0.70901246  0.10493698  1
  O  O238  1  0.13902668  0.70002189  0.38850432  1
  C  C239  1  0.25426947  0.60038917  0.48420752  1
  H  H240  1  0.08108324  0.74768891  0.23698152  1
  H  H241  1  0.37934781  0.70542671  0.22987576  1
  H  H242  1  0.39329247  0.55138613  0.10514239  1
  H  H243  1  0.44722623  0.67278123  0.05525606  1
  O  O244  1  0.20089996  0.60366093  0.49001564  1
  O  O245  1  0.39215566  0.65629494  0.42964785  1
  C  C246  1  0.30701792  0.73459856  0.12848247  1
  C  C247  1  0.44853531  0.65817270  0.41973450  1
  C  C248  1  0.13854878  0.55455554  0.30350573  1
  H  H249  1  0.47563423  0.74607442  0.18916103  1
  C  C250  1  0.17734732  0.70642831  0.33779623  1
  N  N251  1  0.06966997  0.68617546  0.01099618  1
  H  H252  1  0.38184416  0.74674343  0.42207121  1
  H  H253  1  0.22856710  0.58457574  0.07559783  1
  H  H254  1  0.12688340  0.53382909  0.04125084  1
  C  C255  1  0.25267149  0.54617689  0.05893292  1
  C  C256  1  0.00200931  0.62914644  0.35752648  1
  Zn  Zn257  1  0.48299047  0.56085361  0.01261632  1
  C  C258  1  0.11495953  0.50087699  0.08336259  1
  C  C259  1  0.32258280  0.66721447  0.90571772  1
  N  N260  1  0.13548334  0.59080250  0.67298281  1
  C  C261  1  0.26826480  0.73976842  0.83508065  1
  H  H262  1  0.36288473  0.64273308  0.91128121  1
  Zn  Zn263  1  0.16553021  0.66086667  0.63587329  1
  H  H264  1  0.18538667  0.57367850  0.91925959  1
  N  N265  1  0.24990626  0.69218124  0.64709396  1
  C  C266  1  0.08134831  0.51431007  0.73013946  1
  C  C267  1  0.37805508  0.58243517  0.72611617  1
  C  C268  1  0.46672533  0.69441398  0.80222393  1
  C  C269  1  0.28407132  0.62511386  0.74747115  1
  C  C270  1  0.20565258  0.53405541  0.91833597  1
  O  O271  1  0.47397798  0.53994525  0.71975278  1
  C  C272  1  0.14791483  0.54349769  0.63448445  1
  C  C273  1  0.02035593  0.58581504  0.83823333  1
  H  H274  1  0.31794616  0.56037698  0.82156325  1
  H  H275  1  0.35677458  0.67401226  0.56834278  1
  C  C276  1  0.09131832  0.57689295  0.73047031  1
  N  N277  1  0.45859240  0.67273254  0.87759261  1
  H  H278  1  0.24370010  0.62458616  0.78420914  1
  C  C279  1  0.42382666  0.54126941  0.75199868  1
  C  C280  1  0.01314913  0.52344063  0.84099475  1
  C  C281  1  0.29599201  0.66014612  0.67545775  1
  C  C282  1  0.38962983  0.61646261  0.65736188  1
  C  C283  1  0.27539990  0.64744916  0.94808989  1
  C  C284  1  0.24358557  0.51756157  0.98338122  1
  C  C285  1  0.22137831  0.67718493  0.94304820  1
  C  C286  1  0.34822909  0.65295407  0.62847496  1
  O  O287  1  0.41047187  0.50469529  0.80341106  1
  C  C288  1  0.32473648  0.58667906  0.76909792  1
  C  C289  1  0.06245502  0.61296149  0.78606304  1
  H  H290  1  0.34983084  0.74809327  0.63657591  1
  C  C291  1  0.45238787  0.71426668  0.93106416  1
  C  C292  1  0.21682756  0.72321756  0.88111596  1
  H  H293  1  0.43092683  0.60988422  0.62494105  1
  H  H294  1  0.18246921  0.54024035  0.58452316  1
  H  H295  1  0.06883512  0.65769981  0.78599882  1
  H  H296  1  0.47000153  0.67213565  0.74486513  1
  H  H297  1  0.48385863  0.58882703  0.85822406  1
  H  H298  1  0.47634226  0.71816483  0.64072927  1
  H  H299  1  0.35900540  0.72654951  0.81393280  1
  C  C300  1  0.32029238  0.71486335  0.85026501  1
  C  C301  1  0.03396710  0.61575758  0.52876653  1
  C  C302  1  0.00348586  0.70140138  0.60258908  1
  N  N303  1  0.15909264  0.74513149  0.65754557  1
  H  H304  1  0.16384302  0.50867774  0.80056054  1
  H  H305  1  0.00776440  0.74774814  0.59895804  1
  C  C306  1  0.12110641  0.73883373  0.91034891  1
  C  C307  1  0.25864659  0.74877436  0.65512113  1
  H  H308  1  0.03173661  0.50145763  0.53410406  1
  C  C309  1  0.03812810  0.67212836  0.54264810  1
  C  C310  1  0.12127666  0.69169920  0.97182280  1
  C  C311  1  0.17249295  0.66127425  0.98590192  1
  H  H312  1  0.28094807  0.60808909  0.97857601  1
  H  H313  1  0.06743221  0.69449833  0.50257222  1
  C  C314  1  0.03823827  0.72832736  0.98646974  1
  H  H315  1  0.37004813  0.57605101  0.53066579  1
  C  C316  1  0.34328983  0.53916673  0.51837388  1
  C  C317  1  0.25654219  0.88658031  0.41484528  1
  H  H318  1  0.29401793  0.91688034  0.40410162  1
  H  H319  1  0.44005897  0.91855378  0.39154319  1
  H  H320  1  0.14646115  0.76343091  0.47690938  1
  C  C321  1  0.41098732  0.81220164  0.19128731  1
  H  H322  1  0.28114202  0.83363267  0.31255998  1
  H  H323  1  0.09450101  0.79177263  0.13665720  1
  C  C324  1  0.25252019  0.83764882  0.36683622  1
  H  H325  1  0.47825500  0.97771675  0.05283796  1
  C  C326  1  0.42067509  0.86540852  0.05650624  1
  C  C327  1  0.28758831  0.78464448  0.08999162  1
  H  H328  1  0.40001710  0.81414555  0.25748039  1
  C  C329  1  0.41067990  0.86177549  0.14497614  1
  H  H330  1  0.01493765  0.83506070  0.23183268  1
  C  C331  1  0.43518833  0.76143183  0.06636677  1
  H  H332  1  0.18837967  0.82854943  0.24147480  1
  C  C333  1  0.08792182  0.91874656  0.03524496  1
  N  N334  1  0.21378034  0.75132098  0.32741933  1
  C  C335  1  0.44290541  0.81323113  0.38757387  1
  C  C336  1  0.06093107  0.78992844  0.35248104  1
  C  C337  1  0.08092109  0.83466408  0.12570537  1
  H  H338  1  0.41912842  0.90146048  0.01734072  1
  C  C339  1  0.03680242  0.85805779  0.18122280  1
  C  C340  1  0.20851816  0.79722482  0.38089636  1
  O  O341  1  0.18198770  0.97764174  0.40120473  1
  H  H342  1  0.40138858  0.90040035  0.18128321  1
  C  C343  1  0.02103957  0.91248871  0.16481049  1
  H  H344  1  0.10610303  0.80168668  0.35783761  1
  C  C345  1  0.43499750  0.81476313  0.01783048  1
  C  C346  1  0.02150169  0.80054681  0.41724535  1
  O  O347  1  0.34968719  0.96859722  0.33841970  1
  C  C348  1  0.04702378  0.94528677  0.09802386  1
  C  C349  1  0.17322153  0.80015429  0.45406616  1
  C  C350  1  0.22758992  0.87301570  0.09021978  1
  C  C351  1  0.21122744  0.89275732  0.47585552  1
  H  H352  1  0.41020110  0.84762930  0.38476440  1
  C  C353  1  0.47087162  0.91984865  0.33988517  1
  H  H354  1  0.19923643  0.90399514  0.12038630  1
  C  C355  1  0.24751599  0.82494743  0.13403379  1
  C  C356  1  0.22398744  0.80834479  0.21078067  1
  C  C357  1  0.17293701  0.94474671  0.45462018  1
  C  C358  1  0.42691848  0.76003892  0.40624848  1
  C  C359  1  0.24308778  0.75885698  0.24967215  1
  H  H360  1  0.03145041  0.82656076  0.47508614  1
  C  C361  1  0.10033456  0.86204073  0.05443825  1
  O  O362  1  0.32827424  0.98455197  0.15831712  1
  C  C363  1  0.04569524  0.75633739  0.28121346  1
  N  N364  1  0.48268480  0.96189547  0.29186906  1
  H  H365  1  0.03807497  0.92011024  0.40621458  1
  C  C366  1  0.43174398  0.75846026  0.16172846  1
  C  C367  1  0.00133085  0.93728371  0.37032875  1
  C  C368  1  0.01078746  0.99074304  0.34110949  1
  C  C369  1  0.02580121  0.99979441  0.09211007  1
  H  H370  1  0.39231661  0.97202953  0.34861796  1
  H  H371  1  0.34417428  0.96728708  0.27751595  1
  C  C372  1  0.24835148  0.88165815  0.00712207  1
  H  H373  1  0.13116371  0.84006051  0.01269724  1
  C  C374  1  0.30878537  0.79887781  0.00685658  1
  H  H375  1  0.20959726  0.98027160  0.68469114  1
  H  H376  1  0.07294215  0.90028496  0.71829010  1
  C  C377  1  0.31309994  0.77376965  0.65667765  1
  C  C378  1  0.47166738  0.76359482  0.64761917  1
  C  C379  1  0.17920928  0.84572011  0.50328028  1
  H  H380  1  0.40620028  0.83013146  0.68325246  1
  C  C381  1  0.31681893  0.82820784  0.69127094  1
  O  O382  1  0.02616237  0.98216101  0.71833618  1
  C  C383  1  0.21075328  0.83784339  0.70261681  1
  H  H384  1  0.32926184  0.95937313  0.84409167  1
  H  H385  1  0.15884920  0.84740522  0.56450763  1
  C  C386  1  0.05627178  0.88153101  0.77535645  1
  C  C387  1  0.27364437  0.90357277  0.77939946  1
  C  C388  1  0.26807770  0.85920114  0.72333980  1
  H  H389  1  0.23334444  0.92334906  0.80277501  1
  O  O390  1  0.17155633  0.86498286  0.72655679  1
  C  C391  1  0.44697327  0.90015778  0.55130831  1
  O  O392  1  0.10881376  0.96222184  0.50687917  1
  C  C393  1  0.20284990  0.78049770  0.66684274  1
  C  C394  1  0.47995457  0.86201209  0.60548081  1
  H  H395  1  0.15175928  0.93607437  0.92995807  1
  C  C396  1  0.37933831  0.89744317  0.77028173  1
  C  C397  1  0.47259087  0.80433800  0.58759609  1
  N  N398  1  0.06667413  0.76018038  0.92757317  1
  H  H399  1  0.15455359  0.96467919  0.81799154  1
  C  C400  1  0.32783251  0.92409260  0.80238856  1
  C  C401  1  0.44679559  0.81941817  0.92948230  1
  C  C402  1  0.47678139  0.78534153  0.73289039  1
  C  C403  1  0.37128537  0.85331588  0.71324389  1
  H  H404  1  0.29566973  0.84994990  0.89328248  1
  C  C405  1  0.16786227  0.75852990  0.86009559  1
  H  H406  1  0.16612468  0.79401978  0.81858642  1
  N  N407  1  0.46793306  0.75146118  0.80568729  1
  H  H408  1  0.33598109  0.77179821  0.96953470  1
  H  H409  1  0.05312956  0.99157252  0.53616367  1
  H  H410  1  0.10162283  0.80577455  0.77526302  1
  H  H411  1  0.42273161  0.91162159  0.78514024  1
  C  C412  1  0.04708497  0.81144627  0.88996911  1
  C  C413  1  0.07140659  0.83182631  0.81158568  1
  H  H414  1  0.10687605  0.93418100  0.54313354  1
  C  C415  1  0.00718469  0.97058190  0.79297981  1
  C  C416  1  0.28491655  0.84324847  0.96180435  1
  C  C417  1  0.11931703  0.78058798  0.64241649  1
  Zn  Zn418  1  0.23889067  0.96409007  0.53943770  1
  H  H419  1  0.47512366  0.78827488  0.52333582  1
  H  H420  1  0.44352976  0.85918464  0.89880643  1
  O  O421  1  0.07547801  0.79975399  0.61918297  1
  O  O422  1  0.40785648  0.90241490  0.50557697  1
  H  H423  1  0.37849338  0.98719382  0.69151925  1
  C  C424  1  0.11661602  0.95234435  0.97294612  1
  H  H425  1  0.39049079  0.98127732  0.56816338  1
  C  C426  1  0.45579451  0.76878004  0.88873152  1
  H  H427  1  0.23259617  0.91898214  0.97117046  1
  O  O428  1  0.00501371  0.98890507  0.53547000  1
  H  H429  1  0.24517440  0.98183099  0.95110814  1
  H  H430  1  0.26465912  0.77092491  0.78594904  1
  C  C431  1  0.49685771  0.83953778  0.75269490  1
  C  C432  1  0.02106030  0.91467179  0.82806193  1
  C  C433  1  0.00308102  0.90098190  0.90899629  1
  C  C434  1  0.01499357  0.84843170  0.94055569  1
  H  H435  1  0.58760105  0.13768430  0.46295019  1
  C  C436  1  0.55696416  0.09363803  0.22060362  1
  C  C437  1  0.64825947  0.10081170  0.14117591  1
  H  H438  1  0.56453452  0.04531306  0.34078515  1
  H  H439  1  0.67000078  0.03035218  0.32064142  1
  C  C440  1  0.58956732  0.10852346  0.14758191  1
  O  O441  1  0.77224471  0.08706798  0.15081792  1
  C  C442  1  0.58622494  0.06242017  0.28457297  1
  C  C443  1  0.74212485  0.06611936  0.20779624  1
  C  C444  1  0.94553449  0.09487364  0.19869473  1
  C  C445  1  0.64613789  0.16953823  0.36900377  1
  H  H446  1  0.99098578  0.16765058  0.26354001  1
  H  H447  1  0.53126953  0.19230237  0.16977659  1
  H  H448  1  0.99626347  0.01566492  0.14173229  1
  O  O449  1  0.86138913  0.12545837  0.31576169  1
  C  C450  1  0.50542714  0.23386198  0.00705143  1
  C  C451  1  0.72453612  0.21548701  0.27227039  1
  Zn  Zn452  1  0.81165355  0.07076140  0.37379945  1
  O  O453  1  0.70562870  0.19958060  0.20041285  1
  O  O454  1  0.84891618  0.20687670  0.16287668  1
  C  C455  1  0.90449207  0.05667526  0.15557065  1
  H  H456  1  0.67573526  0.11710793  0.08928022  1
  C  C457  1  0.69627206  0.20112518  0.35384661  1
  N  N458  1  0.96265543  0.13855446  0.14925110  1
  C  C459  1  0.51483670  0.05131040  0.00610769  1
  C  C460  1  0.67742030  0.07363070  0.20680293  1
  C  C461  1  0.63011428  0.15960833  0.45186373  1
  C  C462  1  0.86247412  0.02969656  0.02838577  1
  C  C463  1  0.64502508  0.05500441  0.27401539  1
  Zn  Zn464  1  0.85448081  0.21137369  0.29453142  1
  O  O465  1  0.76743544  0.24745380  0.27503609  1
  H  H466  1  0.87873804  0.17758060  0.17062815  1
  N  N467  1  0.88944814  0.07246293  0.07422285  1
  Zn  Zn468  1  0.77388375  0.17183374  0.11162498  1
  H  H469  1  0.61989468  0.15443333  0.31467575  1
  C  C470  1  0.89166843  0.17176271  0.49398781  1
  H  H471  1  0.56982392  0.12923136  0.09732768  1
  C  C472  1  0.61064119  0.01322722  0.47799206  1
  C  C473  1  0.72874094  0.22359301  0.42227405  1
  H  H474  1  0.84579669  0.11021907  0.26097043  1
  H  H475  1  0.52407872  0.16458135  0.29460927  1
  H  H476  1  0.54909813  0.01476730  0.16076478  1
  H  H477  1  0.88661880  0.16932326  0.42485880  1
  O  O478  1  0.76326239  0.03948123  0.26812386  1
  H  H479  1  0.65741118  0.02934493  0.46280047  1
  C  C480  1  0.52433700  0.20825800  0.31924728  1
  C  C481  1  0.97778962  0.07545360  0.26857090  1
  N  N482  1  0.79784812  0.05289720  0.48904451  1
  H  H483  1  0.63499196  0.02205871  0.06119736  1
  Zn  Zn484  1  0.94966457  0.12974216  0.01856104  1
  C  C485  1  0.96702128  0.01962636  0.29558694  1
  C  C486  1  0.88063722  0.01176516  0.19911731  1
  O  O487  1  0.99737461  0.22786224  0.17569094  1
  C  C488  1  0.98606996  0.18224048  0.19742777  1
  H  H489  1  0.61274968  0.24908250  0.48372690  1
  H  H490  1  0.76681671  0.24954578  0.40478566  1
  H  H491  1  0.57785237  0.24733012  0.21691387  1
  O  O492  1  0.57510688  0.04819192  0.48577280  1
  C  C493  1  0.78415378  0.16971444  0.77810857  1
  C  C494  1  0.82082299  0.04427230  0.96870361  1
  N  N495  1  0.64144154  0.17341364  0.60667698  1
  N  N496  1  0.60008837  0.13667709  0.72160325  1
  H  H497  1  0.68895886  0.08517427  0.88806939  1
  N  N498  1  0.93785740  0.10158650  0.67926450  1
  H  H499  1  0.91860797  0.20504544  0.73632665  1
  O  O500  1  0.80339010  0.19341255  0.96330459  1
  C  C501  1  0.76899904  0.08333948  0.54425412  1
  H  H502  1  0.80456506  0.16690824  0.64206037  1
  H  H503  1  0.62946027  0.17197100  0.88512571  1
  C  C504  1  0.97272499  0.22163395  0.89391614  1
  H  H505  1  0.51641289  0.17492017  0.63818757  1
  C  C506  1  0.65841703  0.20913015  0.67231510  1
  N  N507  1  0.94205649  0.17173247  0.90946404  1
  C  C508  1  0.63276878  0.17943225  0.74444549  1
  Zn  Zn509  1  0.95372878  0.11695347  0.79804093  1
  H  H510  1  0.57976906  0.10455120  0.59789466  1
  C  C511  1  0.79052015  0.00385675  0.92254506  1
  C  C512  1  0.75322405  0.09710788  0.69375200  1
  C  C513  1  0.78274059  0.14906043  0.69836316  1
  C  C514  1  0.71914999  0.09915536  0.83513787  1
  C  C515  1  0.64348693  0.19504198  0.82807954  1
  H  H516  1  0.89748592  0.17209668  0.91842777  1
  O  O517  1  0.97485382  0.00110671  0.83375705  1
  C  C518  1  0.72188380  0.07070305  0.75902281  1
  C  C519  1  0.88520302  0.23626217  0.61651906  1
  H  H520  1  0.81199992  0.08671919  0.95976614  1
  H  H521  1  0.75409491  0.01355728  0.88303043  1
  C  C522  1  0.76199001  0.16470193  0.93770063  1
  H  H523  1  0.80892252  0.20833022  0.78862225  1
  N  N524  1  0.77154177  0.06222883  0.62650154  1
  C  C525  1  0.54911186  0.07886449  0.94646976  1
  C  C526  1  0.81054640  0.01929731  0.62788476  1
  C  C527  1  0.91708620  0.13960049  0.63036620  1
  C  C528  1  0.75722660  0.14477067  0.84705769  1
  C  C529  1  0.90891461  0.19561058  0.66726239  1
  H  H530  1  0.92162900  0.08693936  0.51551074  1
  H  H531  1  0.60431723  0.07059584  0.83877317  1
  C  C532  1  0.82574196  0.01217115  0.53629216  1
  C  C533  1  0.60549525  0.13237935  0.63797632  1
  O  O534  1  0.73013875  0.14718993  0.99415985  1
  C  C535  1  0.90941539  0.12692692  0.54151104  1
  C  C536  1  0.57894105  0.04835545  0.88469935  1
  H  H537  1  0.54824323  0.12601316  0.94868858  1
  H  H538  1  0.74017427  0.11856823  0.52701629  1
  Zn  Zn539  1  0.98008260  0.03832003  0.64467702  1
  H  H540  1  0.51798280  0.01532166  0.68082793  1
  H  H541  1  0.69933286  0.03024954  0.75441266  1
  C  C542  1  0.66109329  0.18012156  0.52334907  1
  H  H543  1  0.73555800  0.23025273  0.55847447  1
  C  C544  1  0.87691036  0.22222060  0.52993376  1
  C  C545  1  0.67260110  0.24569788  0.83143105  1
  H  H546  1  0.66248459  0.24412066  0.96791757  1
  C  C547  1  0.71084627  0.21363896  0.50555234  1
  C  C548  1  0.54336871  0.30474524  0.30969242  1
  H  H549  1  0.58882092  0.46334610  0.02218941  1
  C  C550  1  0.56736403  0.35208989  0.25395316  1
  C  C551  1  0.85592965  0.44276782  0.14384485  1
  N  N552  1  0.93227552  0.39711345  0.31597496  1
  H  H553  1  0.95520575  0.46995206  0.37318749  1
  H  H554  1  0.68223614  0.30551850  0.38543647  1
  H  H555  1  0.95186600  0.48350125  0.18509085  1
  C  C556  1  0.55315035  0.25242214  0.27808508  1
  C  C557  1  0.76124707  0.44216497  0.46373500  1
  C  C558  1  0.85887212  0.37379813  0.03221802  1
  N  N559  1  0.99544805  0.32807219  0.33775966  1
  H  H560  1  0.98386459  0.35850453  0.04621761  1
  O  O561  1  0.59396625  0.34055583  0.18974605  1
  C  C562  1  0.86188673  0.27058182  0.47549491  1
  O  O563  1  0.63010037  0.46337149  0.03931819  1
  C  C564  1  0.73729844  0.39173538  0.43186736  1
  C  C565  1  0.85109819  0.32093935  0.00125294  1
  C  C566  1  0.66747347  0.32352656  0.44612794  1
  N  N567  1  0.85599915  0.47065199  0.22118792  1
  C  C568  1  0.85526398  0.38594588  0.11999708  1
  H  H569  1  0.75080959  0.36873755  0.37513888  1
  H  H570  1  0.85662105  0.35419866  0.17215842  1
  Zn  Zn571  1  0.86045314  0.43875049  0.32984502  1
  O  O572  1  0.56383093  0.40191870  0.27647680  1
  C  C573  1  0.98440531  0.44929767  0.19730017  1
  O  O574  1  0.66415548  0.49859751  0.22070770  1
  H  H575  1  0.91619309  0.33702442  0.41463077  1
  C  C576  1  0.51797280  0.31600736  0.38955965  1
  N  N577  1  0.81622260  0.46207179  0.44089342  1
  Zn  Zn578  1  0.60521951  0.44153243  0.15513256  1
  H  H579  1  0.84107126  0.28350620  0.03880400  1
  C  C580  1  0.97372034  0.40372232  0.25454372  1
  C  C581  1  0.94346198  0.35212780  0.36150475  1
  O  O582  1  0.50718893  0.42686125  0.08765880  1
  C  C583  1  0.85363543  0.48584457  0.07746933  1
  C  C584  1  0.68972819  0.37342916  0.47787643  1
  H  H585  1  0.95629317  0.27292132  0.47792480  1
  O  O586  1  0.86925420  0.26593958  0.39205781  1
  H  H587  1  0.51199620  0.35783371  0.41564979  1
  H  H588  1  0.53918006  0.25989394  0.03591031  1
  H  H589  1  0.94899426  0.26844639  0.00829381  1
  C  C590  1  0.62785474  0.29284985  0.49821143  1
  C  C591  1  0.99459472  0.25525571  0.44516576  1
  C  C592  1  0.73747440  0.34768091  0.86306574  1
  C  C593  1  0.73121383  0.46885286  0.77012908  1
  H  H594  1  0.86315072  0.39561102  0.66208796  1
  C  C595  1  0.87375518  0.35238865  0.85211169  1
  C  C596  1  0.73013559  0.32927666  0.77882133  1
  N  N597  1  0.93854340  0.43828209  0.61555339  1
  C  C598  1  0.85802459  0.47836930  0.98950440  1
  H  H599  1  0.69631918  0.43749799  0.76691806  1
  C  C600  1  0.78366406  0.45545936  0.73604719  1
  H  H601  1  0.54697981  0.25556130  0.73437526  1
  C  C602  1  0.56772545  0.38972202  0.79175865  1
  C  C603  1  0.53699456  0.29885920  0.74052135  1
  C  C604  1  0.97428903  0.26734208  0.94934016  1
  H  H605  1  0.88360370  0.28021016  0.63682829  1
  H  H606  1  0.59525189  0.41248577  0.83723085  1
  C  C607  1  0.57188901  0.33127637  0.79173328  1
  C  C608  1  0.88947216  0.43530393  0.65554792  1
  O  O609  1  0.50583457  0.47699051  0.97156969  1
  H  H610  1  0.79210671  0.41736360  0.70311966  1
  H  H611  1  0.88109244  0.44123110  0.83517391  1
  C  C612  1  0.66916068  0.40369654  0.55683589  1
  C  C613  1  0.69618290  0.45194188  0.59103573  1
  C  C614  1  0.62533668  0.37276047  0.59916898  1
  C  C615  1  0.70123491  0.27837515  0.76182627  1
  C  C616  1  0.71392160  0.31418551  0.92875240  1
  H  H617  1  0.74785144  0.35200067  0.72508769  1
  C  C618  1  0.73880735  0.47430812  0.53746604  1
  H  H619  1  0.60646946  0.30712394  0.82866625  1
  H  H620  1  0.88150643  0.34056306  0.78280813  1
  C  C621  1  0.86195363  0.42086064  0.96660066  1
  H  H622  1  0.76237451  0.38560499  0.87731505  1
  H  H623  1  0.70444897  0.28062806  0.62198000  1
  C  C624  1  0.87398157  0.40728644  0.88040322  1
  H  H625  1  0.60469153  0.38764672  0.65774308  1
  C  C626  1  0.82979533  0.49471121  0.75023111  1
  N  N627  1  0.87748106  0.48601725  0.69607222  1
  H  H628  1  0.97557893  0.32600487  0.74502308  1
  C  C629  1  0.68097549  0.26667231  0.91505118  1
  C  C630  1  0.52467977  0.41929241  0.74627428  1
  C  C631  1  0.60493721  0.32195119  0.56690395  1
  H  H632  1  0.57119526  0.29754467  0.59857493  1
  C  C633  1  0.95689104  0.49275863  0.62010053  1
  H  H634  1  0.85090038  0.27080998  0.88455901  1
  H  H635  1  0.52004787  0.46571839  0.75146899  1
  H  H636  1  0.98042158  0.45296056  0.92034782  1
  C  C637  1  0.85832490  0.31223581  0.91250844  1
  H  H638  1  0.95653444  0.36479752  0.68034789  1
  O  O639  1  0.94587768  0.33005943  0.70327413  1
  H  H640  1  0.72430758  0.32463613  0.99285975  1
  C  C641  1  0.69307170  0.25707269  0.67845172  1
  C  C642  1  0.98210849  0.49800233  0.91170620  1
  H  H643  1  0.68310594  0.46910220  0.65220873  1
  O  O644  1  0.84919802  0.31613136  0.50448515  1
  H  H645  1  0.90834387  0.61466327  0.20203675  1
  C  C646  1  0.82462072  0.50460142  0.49127929  1
  O  O647  1  0.56644918  0.57910031  0.06387357  1
  C  C648  1  0.57063670  0.63024453  0.10178955  1
  C  C649  1  0.85606346  0.72675273  0.37665400  1
  C  C650  1  0.89154608  0.71904225  0.30646704  1
  H  H651  1  0.84857927  0.55423611  0.26042703  1
  C  C652  1  0.52663170  0.72723950  0.38300748  1
  H  H653  1  0.76747993  0.60668022  0.15263323  1
  C  C654  1  0.98978101  0.73538998  0.26109191  1
  N  N655  1  0.85426060  0.53712556  0.12287804  1
  H  H656  1  0.69269891  0.54340191  0.37405725  1
  C  C657  1  0.72272082  0.57393277  0.25466031  1
  H  H658  1  0.92661261  0.71065276  0.15027739  1
  Zn  Zn659  1  0.64745034  0.54473656  0.02204728  1
  O  O660  1  0.71185509  0.53682126  0.11628492  1
  C  C661  1  0.71563365  0.57793248  0.34486491  1
  C  C662  1  0.76278346  0.61095399  0.21936538  1
  C  C663  1  0.57408698  0.67927165  0.04956110  1
  C  C664  1  0.94550619  0.74521404  0.32233864  1
  C  C665  1  0.74154665  0.61888226  0.39195527  1
  O  O666  1  0.56737808  0.63506924  0.17627073  1
  H  H667  1  0.80688468  0.69026209  0.22725078  1
  H  H668  1  0.56496441  0.73279227  0.16341302  1
  C  C669  1  0.85554407  0.59195994  0.08957472  1
  C  C670  1  0.70077209  0.53282228  0.19329536  1
  C  C671  1  0.78909854  0.72280133  0.48049149  1
  H  H672  1  0.73783777  0.62120077  0.46183681  1
  C  C673  1  0.85264734  0.52507021  0.20773123  1
  C  C674  1  0.78278713  0.65721185  0.26266651  1
  C  C675  1  0.88909131  0.62882670  0.13932443  1
  C  C676  1  0.87557700  0.69436457  0.03017591  1
  C  C677  1  0.57037535  0.73245740  0.09324395  1
  C  C678  1  0.77553232  0.66199004  0.35313943  1
  N  N679  1  0.80357283  0.70362733  0.39887603  1
  H  H680  1  0.91611872  0.64929152  0.39345600  1
  C  C681  1  0.96899602  0.51413680  0.37287534  1
  H  H682  1  0.88382068  0.54851028  0.38413634  1
  C  C683  1  0.89876623  0.68220462  0.11032327  1
  H  H684  1  0.88336965  0.69554163  0.24845223  1
  C  C685  1  0.94540528  0.61534819  0.37767934  1
  H  H686  1  0.94164729  0.51852552  0.03249237  1
  C  C687  1  0.92849097  0.55803796  0.37768366  1
  H  H688  1  0.55837654  0.69524588  0.37783839  1
  H  H689  1  0.99270260  0.73139018  0.00988889  1
  H  H690  1  0.86015679  0.53474539  0.49285542  1
  C  C691  1  0.82905045  0.60617686  0.01067925  1
  H  H692  1  0.94185416  0.62201597  0.00961526  1
  H  H693  1  0.98078080  0.71167031  0.20563353  1
  C  C694  1  0.59787794  0.70712611  0.61958101  1
  C  C695  1  0.62488863  0.71488784  0.53968224  1
  C  C696  1  0.57949837  0.67439066  0.96109830  1
  C  C697  1  0.95999036  0.61264949  0.63961453  1
  C  C698  1  0.78326089  0.71761044  0.74144455  1
  C  C699  1  0.81725975  0.60848256  0.57387455  1
  H  H700  1  0.69566037  0.55034772  0.66290215  1
  C  C701  1  0.58956022  0.64979070  0.65728813  1
  C  C702  1  0.72228116  0.51997711  0.81251680  1
  C  C703  1  0.77513697  0.56597037  0.59254275  1
  C  C704  1  0.99892138  0.52168301  0.57387846  1
  C  C705  1  0.66470346  0.53438088  0.84770339  1
  C  C706  1  0.81879024  0.65628328  0.62117055  1
  H  H707  1  0.86298737  0.56751474  0.81841939  1
  Zn  Zn708  1  0.55448913  0.56133143  0.77986053  1
  H  H709  1  0.71106168  0.72868989  0.99138719  1
  H  H710  1  0.76325627  0.59383216  0.86361082  1
  H  H711  1  0.59670076  0.71516953  0.84672076  1
  H  H712  1  0.84962089  0.68559314  0.60632473  1
  H  H713  1  0.82983727  0.67644232  0.92106715  1
  N  N714  1  0.78058979  0.51595397  0.54622263  1
  H  H715  1  0.80379176  0.57625761  0.97302191  1
  H  H716  1  0.57288936  0.63206732  0.93263850  1
  C  C717  1  0.73111842  0.57972908  0.65356830  1
  O  O718  1  0.57036611  0.64430136  0.73217873  1
  O  O719  1  0.60080144  0.60772827  0.62036851  1
  C  C720  1  0.91568228  0.52744741  0.67320040  1
  C  C721  1  0.58471173  0.74940377  0.67625147  1
  H  H722  1  0.70741416  0.63074776  0.75857875  1
  C  C723  1  0.73585810  0.62700769  0.70552723  1
  H  H724  1  0.93182360  0.69196742  0.69332134  1
  C  C725  1  0.58894917  0.71957933  0.91233776  1
  O  O726  1  0.75217315  0.72538182  0.80726374  1
  C  C727  1  0.78147043  0.66559373  0.69058344  1
  C  C728  1  0.82618791  0.54087774  0.80633729  1
  H  H729  1  0.88026113  0.60291320  0.71726789  1
  C  C730  1  0.77096089  0.55523212  0.82947742  1
  C  C731  1  0.91644649  0.58416773  0.68506441  1
  O  O732  1  0.62067796  0.50645185  0.83143541  1
  C  C733  1  0.96236957  0.67187760  0.64881003  1
  O  O734  1  0.66057494  0.57282675  0.90104437  1
  H  H735  1  0.84352264  0.60440232  0.51779572  1
  H  H736  1  0.86194142  0.51286921  0.94744829  1
  H  H737  1  0.56500672  0.74403440  0.73950298  1
  H  H738  1  0.74707693  0.71950293  0.50828339  1
  C  C739  1  0.84012377  0.65929007  0.98149945  1
  C  C740  1  0.98575237  0.61717427  0.89468663  1
  C  C741  1  0.95975461  0.59261578  0.96335361  1
  C  C742  1  0.96099891  0.53334092  0.97380815  1
  H  H743  1  0.98715809  0.66202260  0.89668685  1
  C  C744  1  0.99801686  0.58074364  0.57893327  1
  O  O745  1  0.51639574  0.58166409  0.89370004  1
  H  H746  1  0.63599584  0.67882400  0.50092259  1
  C  C747  1  0.64115066  0.97580080  0.06841889  1
  H  H748  1  0.99979049  0.83667818  0.00600301  1
  C  C749  1  0.73014513  0.91836170  0.24027304  1
  C  C750  1  0.52764801  0.94586496  0.23834412  1
  H  H751  1  0.98589893  0.93181831  0.19951545  1
  H  H752  1  0.56682673  0.81838845  0.06709197  1
  C  C753  1  0.56884767  0.77812152  0.03782089  1
  H  H754  1  0.66860047  0.81785278  0.11141790  1
  C  C755  1  0.78971510  0.84164950  0.34842513  1
  C  C756  1  0.54435267  0.88642172  0.25382385  1
  C  C757  1  0.94781145  0.90842591  0.35278826  1
  C  C758  1  0.88069948  0.97328464  0.03569671  1
  C  C759  1  0.61803256  0.88487889  0.14675104  1
  H  H760  1  0.84490853  0.98924893  0.17028919  1
  C  C761  1  0.77530793  0.88555555  0.20850635  1
  C  C762  1  0.69385228  0.89023063  0.03906318  1
  C  C763  1  0.80259870  0.84631813  0.26248143  1
  C  C764  1  0.60621177  0.94513472  0.12893101  1
  C  C765  1  0.66063966  0.86068758  0.09531623  1
  C  C766  1  0.66256439  0.93589160  0.36260526  1
  C  C767  1  0.96445790  0.77572299  0.40295954  1
  C  C768  1  0.74109864  0.86924578  0.38239712  1
  C  C769  1  0.58650889  0.85597888  0.20990764  1
  H  H770  1  0.81373307  0.81413483  0.38699387  1
  C  C771  1  0.90532834  0.93534608  0.30535863  1
  C  C772  1  0.56083185  0.97103065  0.17176134  1
  H  H773  1  0.86427400  0.91440955  0.30146861  1
  H  H774  1  0.83707216  0.81953225  0.23498298  1
  C  C775  1  0.92850220  0.78210568  0.47367988  1
  H  H776  1  0.78701867  0.89295845  0.14146376  1
  H  H777  1  0.70963227  0.95288496  0.20701653  1
  H  H778  1  0.87849596  0.96573859  0.44820509  1
  C  C779  1  0.71076604  0.91031875  0.32484293  1
  H  H780  1  0.59380103  0.81300375  0.22881345  1
  H  H781  1  0.63664450  0.96589117  0.32184882  1
  C  C782  1  0.72525120  0.85537161  0.46472004  1
  H  H783  1  0.59071230  0.78909307  0.35230798  1
  H  H784  1  0.93772107  0.86560833  0.37196191  1
  C  C785  1  0.91388085  0.98911620  0.26717920  1
  C  C786  1  0.51196081  0.99374335  0.01035203  1
  C  C787  1  0.54491796  0.78039887  0.36446903  1
  C  C788  1  0.64676144  0.92470593  0.44605788  1
  C  C789  1  0.68480332  0.94844335  0.02526876  1
  H  H790  1  0.91557844  0.96053244  0.07642113  1
  H  H791  1  0.64577511  0.77770485  0.44874620  1
  O  O792  1  0.91451499  0.78883603  0.03990110  1
  H  H793  1  0.73117928  0.86870512  0.00703374  1
  N  N794  1  0.60434999  0.95820071  0.48548641  1
  C  C795  1  0.87360073  0.75711252  0.45774771  1
  H  H796  1  0.52088635  0.88615042  0.02471975  1
  C  C797  1  0.88862997  0.75341000  0.00294246  1
  N  N798  1  0.50807211  0.87388506  0.32016390  1
  H  H799  1  0.68678575  0.81468566  0.30886573  1
  C  C800  1  0.67424781  0.88168954  0.49601667  1
  C  C801  1  0.50122022  0.82282839  0.35994762  1
  O  O802  1  0.67305222  0.77807783  0.32915665  1
  H  H803  1  0.70101752  0.76788144  0.36851026  1
  C  C804  1  0.63287496  0.81478765  0.82990679  1
  N  N805  1  0.59702579  0.81887156  0.90225385  1
  C  C806  1  0.58272503  0.87326637  0.91665776  1
  N  N807  1  0.64232873  0.86196312  0.79758244  1
  C  C808  1  0.61388719  0.90189374  0.84368994  1
  H  H809  1  0.95859192  0.85045914  0.77207739  1
  H  H810  1  0.52908671  0.91679884  0.69742839  1
  O  O811  1  0.67532336  0.97851016  0.64332302  1
  H  H812  1  0.57285689  0.99864033  0.62909453  1
  H  H813  1  0.70971647  0.97245533  0.97693160  1
  C  C814  1  0.89391420  0.91068931  0.73991428  1
  C  C815  1  0.61362391  0.96051939  0.82773907  1
  H  H816  1  0.66050818  0.96086241  0.59308221  1
  H  H817  1  0.58697122  0.83701854  0.69521273  1
  H  H818  1  0.79688675  0.89279864  0.61765367  1
  O  O819  1  0.55102842  0.98835287  0.68022301  1
  Zn  Zn820  1  0.78477841  0.77822863  0.89689559  1
  C  C821  1  0.59750459  0.80289747  0.65326838  1
  H  H822  1  0.99810813  0.96166070  0.58506618  1
  H  H823  1  0.87920188  0.91730417  0.80800082  1
  H  H824  1  0.63646502  0.98012228  0.77124794  1
  Zn  Zn825  1  0.81208371  0.80332436  0.60953285  1
  O  O826  1  0.80407459  0.86145685  0.86236033  1
  H  H827  1  0.67016317  0.77519401  0.95595873  1
  Zn  Zn828  1  0.69721385  0.88476770  0.70005696  1
  C  C829  1  0.83237652  0.98649185  0.69529478  1
  C  C830  1  0.85431512  0.93365043  0.98529771  1
  C  C831  1  0.87013088  0.94316967  0.67151754  1
  C  C832  1  0.62434439  0.81500118  0.57583155  1
  C  C833  1  0.80868829  0.94915492  0.92760133  1
  N  N834  1  0.65029846  0.86697194  0.57491362  1
  O  O835  1  0.75308752  0.92551774  0.80376958  1
  O  O836  1  0.76840421  0.86807069  0.63655294  1
  C  C837  1  0.93427821  0.89378520  0.56737701  1
  C  C838  1  0.78569918  0.91073653  0.86135067  1
  C  C839  1  0.57887313  0.77258325  0.94882508  1
  C  C840  1  0.58128700  0.99020220  0.88643172  1
  C  C841  1  0.88618220  0.93370379  0.58192461  1
  H  H842  1  0.98850870  0.82882501  0.61651191  1
  O  O843  1  0.86833946  0.76346501  0.92647622  1
  Zn  Zn844  1  0.53165593  0.91879567  0.52618171  1
  C  C845  1  0.93936747  0.87436863  0.72077709  1
  C  C846  1  0.50313366  0.87673462  0.68589141  1
  H  H847  1  0.65503870  0.77647946  0.80923119  1
  H  H848  1  0.98272602  0.92966311  0.95572829  1
  C  C849  1  0.54508519  0.95975276  0.95491059  1
  H  H850  1  0.93694128  0.80779869  0.52776767  1
  C  C851  1  0.95696047  0.86242284  0.63307866  1
  C  C852  1  0.55007829  0.90259256  0.97463643  1
  C  C853  1  0.63303957  0.76959260  0.51728404  1
  O  O854  1  0.70714665  0.76737242  0.99022210  1
  C  C855  1  0.86573948  0.96858259  0.51573654  1
  H  H856  1  0.70607508  0.99975014  0.62004112  1
  H  H857  1  0.95009771  0.88794872  0.50445163  1
  H  H858  1  0.50304602  0.85652919  0.81553220  1
  H  H859  1  0.87091240  0.89124034  0.98428168  1
  H  H860  1  0.81791396  0.99280086  0.76018776  1
  O  O861  1  0.81928349  0.75344654  0.72234858  1
  N  N862  1  0.82838398  0.75330717  0.51700526  1
  H  H863  1  0.74943272  0.82841170  0.50432373  1
