# generated using pymatgen
data_ZnH8C12(N2Cl)2
_symmetry_space_group_name_H-M   'P 1'
_cell_length_a   40.43767738
_cell_length_b   37.97199457
_cell_length_c   12.29941979
_cell_angle_alpha   90.00000000
_cell_angle_beta   90.00000000
_cell_angle_gamma   90.00000000
_symmetry_Int_Tables_number   1
_chemical_formula_structural   ZnH8C12(N2Cl)2
_chemical_formula_sum   'Zn48 H384 C576 N192 Cl96'
_cell_volume   18885.75006187
_cell_formula_units_Z   48
loop_
 _symmetry_equiv_pos_site_id
 _symmetry_equiv_pos_as_xyz
  1  'x, y, z'
loop_
 _atom_site_type_symbol
 _atom_site_label
 _atom_site_symmetry_multiplicity
 _atom_site_fract_x
 _atom_site_fract_y
 _atom_site_fract_z
 _atom_site_occupancy
  H  H0  1  0.06587237  0.12509901  0.25426909  1
  C  C1  1  0.18022682  0.16011117  0.17227262  1
  C  C2  1  0.19662666  0.18680703  0.11515618  1
  H  H3  1  0.15232309  0.16163184  0.16580331  1
  H  H4  1  0.15705924  0.08439926  0.40337030  1
  C  C5  1  0.11458637  0.04790904  0.35855267  1
  C  C6  1  0.05290262  0.10206575  0.22008867  1
  C  C7  1  0.11001256  0.16707323  0.50572453  1
  C  C8  1  0.17165325  0.21534110  0.06903625  1
  N  N9  1  0.14147491  0.20193890  0.06785763  1
  C  C10  1  0.01828350  0.09774372  0.24441109  1
  C  C11  1  0.14828767  0.05703109  0.39487462  1
  C  C12  1  0.06882360  0.07711551  0.15023192  1
  C  C13  1  0.03208380  0.22663486  0.13840432  1
  N  N14  1  0.01768742  0.19560082  0.11388050  1
  H  H15  1  0.09803803  0.06898060  0.33073658  1
  N  N16  1  0.21515033  0.04037514  0.15813200  1
  Cl  Cl17  1  0.12599427  0.11877152  0.25890366  1
  C  C18  1  0.01970193  0.04653434  0.12827631  1
  N  N19  1  0.05274439  0.04865870  0.10800271  1
  H  H20  1  0.19255366  0.07839994  0.08336116  1
  C  C21  1  0.18774552  0.05112175  0.10426193  1
  C  C22  1  0.19774118  0.12771028  0.20244774  1
  C  C23  1  0.12173922  0.22465194  0.01950545  1
  C  C24  1  0.15911396  0.02916732  0.07414285  1
  H  H25  1  0.01467126  0.24293513  0.18159859  1
  H  H26  1  0.11012880  0.17158424  0.41206588  1
  C  C27  1  0.08539815  0.21550290  0.03831088  1
  C  C28  1  0.10810812  0.01224192  0.70119352  1
  H  H29  1  0.00922952  0.07937226  0.89600762  1
  H  H30  1  0.09455600  0.07970734  0.11646047  1
  C  C31  1  0.03460475  0.17733675  0.03753968  1
  H  H32  1  0.00708889  0.02003543  0.09824062  1
  C  C33  1  0.06443070  0.23698348  0.09948570  1
  Cl  Cl34  1  0.04334470  0.23283133  0.69189601  1
  C  C35  1  0.21075163  0.07257042  0.62042108  1
  Zn  Zn36  1  0.03843324  0.04579701  0.46556379  1
  C  C37  1  0.00641558  0.23183338  0.39422614  1
  N  N38  1  0.17002863  0.03417269  0.43808647  1
  H  H39  1  0.21761758  0.01237326  0.61085478  1
  N  N40  1  0.00099866  0.15149642  0.32554553  1
  N  N41  1  0.23260620  0.15737087  0.67148460  1
  H  H42  1  0.02178422  0.15189843  0.02560717  1
  C  C43  1  0.20829871  0.03628219  0.66106531  1
  H  H44  1  0.01862103  0.22987189  0.31407930  1
  C  C45  1  0.16951334  0.19170818  0.68931376  1
  H  H46  1  0.13515912  0.04203092  0.05616714  1
  C  C47  1  0.11831196  0.19685677  0.56514111  1
  Zn  Zn48  1  0.07609697  0.01230614  0.04033660  1
  N  N49  1  0.22938508  0.12292915  0.18247631  1
  C  C50  1  0.23127818  0.18291531  0.10750201  1
  N  N51  1  0.18749633  0.24702871  0.03859284  1
  H  H52  1  0.18437010  0.10372489  0.22498442  1
  C  C53  1  0.06894136  0.18382189  0.00976903  1
  C  C54  1  0.20323543  0.14031355  0.68320648  1
  N  N55  1  0.19068396  0.02698415  0.74761337  1
  C  C56  1  0.00724313  0.11538870  0.34960408  1
  C  C57  1  0.18570860  0.09033733  0.79111009  1
  Cl  Cl58  1  0.14354421  0.09522209  0.98008632  1
  C  C59  1  0.18231964  0.05302024  0.81662113  1
  H  H60  1  0.08480376  0.16401505  0.96531924  1
  N  N61  1  0.00449636  0.08877632  0.42790747  1
  N  N62  1  0.19639008  0.21296105  0.67803825  1
  N  N63  1  0.17324622  0.15613185  0.68997534  1
  H  H64  1  0.16878841  0.04274750  0.88791513  1
  H  H65  1  0.18314481  0.11248601  0.85223404  1
  Cl  Cl66  1  0.05003922  0.12494034  0.87683531  1
  N  N67  1  0.05736930  0.02848293  0.59836337  1
  C  C68  1  0.10482535  0.01208849  0.34975753  1
  C  C69  1  0.22268692  0.19257876  0.67236120  1
  C  C70  1  0.20141644  0.10018431  0.69086101  1
  H  H71  1  0.22520197  0.07907741  0.54817074  1
  Zn  Zn72  1  0.09996336  0.16326682  0.67829578  1
  C  C73  1  0.03904172  0.01131892  0.67395195  1
  H  H74  1  0.10055117  0.04454928  0.54926324  1
  Cl  Cl75  1  0.09137358  0.12061089  0.49335679  1
  C  C76  1  0.13436389  0.20719697  0.67782788  1
  C  C77  1  0.08958002  0.03123918  0.61955461  1
  C  C78  1  0.12048303  0.23673237  0.74269026  1
  H  H79  1  0.00887915  0.12624056  0.74401228  1
  H  H80  1  0.24611468  0.20443640  0.07195894  1
  H  H81  1  0.01199711  0.00946548  0.64564622  1
  H  H82  1  0.11702719  0.22131703  0.51582226  1
  N  N83  1  0.04600681  0.00361197  0.37063246  1
  C  C84  1  0.00066373  0.07097870  0.18965404  1
  C  C85  1  0.24665859  0.15169218  0.15025039  1
  C  C86  1  0.21636513  0.00464325  0.18131066  1
  C  C87  1  0.16264817  0.00023468  0.42271465  1
  H  H88  1  0.13513090  0.01202630  0.71275670  1
  C  C89  1  0.08649108  0.24412100  0.74313055  1
  H  H90  1  0.22889683  0.00325660  0.86893005  1
  C  C91  1  0.24948843  0.00064054  0.92702730  1
  C  C92  1  0.13294682  0.34384081  0.19155391  1
  H  H93  1  0.21201483  0.34126105  0.27884107  1
  C  C94  1  0.15367077  0.36496883  0.25689758  1
  C  C95  1  0.05375829  0.45573199  0.29211229  1
  N  N96  1  0.04049944  0.45833337  0.19557674  1
  H  H97  1  0.15062353  0.40117869  0.40284705  1
  H  H98  1  0.06607464  0.34963419  0.36853004  1
  N  N99  1  0.18581933  0.33174845  0.10498174  1
  C  C100  1  0.10013359  0.33694979  0.22701396  1
  C  C101  1  0.15178419  0.33606162  0.08732716  1
  H  H102  1  0.08271722  0.32096006  0.18126135  1
  H  H103  1  0.17815460  0.37334711  0.22434656  1
  C  C104  1  0.13931482  0.38015255  0.35568328  1
  C  C105  1  0.09198244  0.35041389  0.33327028  1
  N  N106  1  0.10756636  0.37648751  0.38110278  1
  Zn  Zn107  1  0.20668705  0.28232778  0.15207111  1
  C  C108  1  0.24636801  0.38308100  0.10238620  1
  C  C109  1  0.19835976  0.35197698  0.02154069  1
  C  C110  1  0.08278937  0.47991586  0.31527722  1
  H  H111  1  0.07436278  0.36677471  0.03801798  1
  H  H112  1  0.10681813  0.47868123  0.16095673  1
  H  H113  1  0.23116873  0.40660974  0.10987843  1
  N  N114  1  0.07788410  0.27099770  0.80597685  1
  Cl  Cl115  1  0.02969073  0.34328488  0.77859295  1
  H  H116  1  0.05383630  0.27834714  0.81555585  1
  C  C117  1  0.01481241  0.42017418  0.37691290  1
  N  N118  1  0.13004232  0.34098581  0.99896068  1
  N  N119  1  0.04630045  0.43513277  0.38654098  1
  Zn  Zn120  1  0.09913754  0.29957498  0.94173023  1
  H  H121  1  0.06852824  0.48693236  0.48559509  1
  Cl  Cl122  1  0.20917931  0.39610021  0.37156671  1
  C  C123  1  0.16595735  0.25966526  0.96282275  1
  H  H124  1  0.24107905  0.47447535  0.73866529  1
  N  N125  1  0.06057163  0.31815206  0.02811973  1
  N  N126  1  0.23489252  0.31346514  0.72663142  1
  H  H127  1  0.03045986  0.47650166  0.01440881  1
  N  N128  1  0.13185085  0.25493936  0.96468906  1
  C  C129  1  0.01541291  0.43698173  0.19789626  1
  C  C130  1  0.08505388  0.49608166  0.42029548  1
  H  H131  1  0.00566107  0.43499823  0.61334604  1
  C  C132  1  0.23468362  0.32827792  0.31754567  1
  C  C133  1  0.18326053  0.27755986  0.86671376  1
  C  C134  1  0.00244296  0.40788364  0.58032211  1
  C  C135  1  0.20199761  0.32049024  0.72542009  1
  N  N136  1  0.23880957  0.29602328  0.27180636  1
  H  H137  1  0.06354318  0.37667915  0.65883319  1
  C  C138  1  0.13738624  0.40961405  0.65739345  1
  C  C139  1  0.13141880  0.37588117  0.83033209  1
  H  H140  1  0.15270556  0.42525408  0.59387515  1
  H  H141  1  0.15114721  0.31242370  0.77204745  1
  H  H142  1  0.19829653  0.34619158  0.68034715  1
  C  C143  1  0.23576428  0.35613380  0.03125058  1
  C  C144  1  0.08798140  0.38137789  0.69482793  1
  N  N145  1  0.10685896  0.40163143  0.62483995  1
  N  N146  1  0.18149661  0.36794333  0.94287035  1
  C  C147  1  0.00922229  0.45730781  0.99750274  1
  H  H148  1  0.07485481  0.26365582  0.11614008  1
  H  H149  1  0.08387377  0.34892223  0.84567617  1
  Cl  Cl150  1  0.20319168  0.43700674  0.65798776  1
  C  C151  1  0.14889812  0.36153967  0.93280039  1
  Cl  Cl152  1  0.04598235  0.28597536  0.27903351  1
  C  C153  1  0.17653624  0.30131990  0.78018968  1
  Zn  Zn154  1  0.08413521  0.41272234  0.48887754  1
  C  C155  1  0.09973441  0.36500189  0.79294455  1
  H  H156  1  0.17284998  0.41069387  0.79662056  1
  C  C157  1  0.21753778  0.26942920  0.86780869  1
  C  C158  1  0.14979013  0.39920517  0.76522031  1
  H  H159  1  0.22750226  0.25070622  0.92392067  1
  C  C160  1  0.05375681  0.34723397  0.05336860  1
  Cl  Cl161  1  0.00878326  0.33838258  0.13251112  1
  C  C162  1  0.10738921  0.48911963  0.24270371  1
  C  C163  1  0.24053472  0.28706619  0.79346333  1
  N  N164  1  0.00112921  0.42013054  0.28000127  1
  H  H165  1  0.13903581  0.25313237  0.78415005  1
  H  H166  1  0.00569905  0.28939352  0.41888704  1
  H  H167  1  0.19403865  0.69966265  0.17070369  1
  N  N168  1  0.10755087  0.71285870  0.93258644  1
  N  N169  1  0.13135427  0.68855933  0.21417396  1
  H  H170  1  0.10477808  0.65469986  0.12740299  1
  Cl  Cl171  1  0.07279042  0.60182895  0.12859696  1
  C  C172  1  0.11555588  0.65727889  0.21024298  1
  Zn  Zn173  1  0.13224325  0.72532544  0.08220903  1
  H  H174  1  0.01484288  0.56396402  0.91692748  1
  C  C175  1  0.24386177  0.59168165  0.17763911  1
  C  C176  1  0.03021318  0.64836903  0.27630554  1
  H  H177  1  0.10336403  0.60589515  0.29022508  1
  C  C178  1  0.11284908  0.63290399  0.29996263  1
  C  C179  1  0.14568160  0.69702864  0.30401484  1
  H  H180  1  0.05551949  0.63817011  0.27987897  1
  H  H181  1  0.15687243  0.72305741  0.29145780  1
  C  C182  1  0.22618391  0.52564750  0.26733890  1
  C  C183  1  0.13418213  0.51082629  0.27922575  1
  N  N184  1  0.23302404  0.54999660  0.76589532  1
  Zn  Zn185  1  0.17042665  0.55968973  0.41420738  1
  C  C186  1  0.20189076  0.72701940  0.18614530  1
  C  C187  1  0.22030438  0.58712356  0.26345477  1
  N  N188  1  0.21047629  0.55509826  0.29792384  1
  H  H189  1  0.20345150  0.60861033  0.29642332  1
  C  C190  1  0.23362597  0.57459588  0.68988399  1
  N  N191  1  0.00296968  0.65990797  0.58798500  1
  H  H192  1  0.02693169  0.57226731  0.61495219  1
  H  H193  1  0.11453161  0.53456215  0.52695946  1
  N  N194  1  0.13354700  0.52831178  0.37226335  1
  C  C195  1  0.12818233  0.64371356  0.39987751  1
  C  C196  1  0.02274872  0.73292803  0.61407702  1
  C  C197  1  0.17540482  0.54964156  0.75778232  1
  H  H198  1  0.03635613  0.52178474  0.45665382  1
  H  H199  1  0.15597472  0.51577278  0.22858401  1
  C  C200  1  0.09283859  0.61278140  0.65724550  1
  H  H201  1  0.16218844  0.68264756  0.46644046  1
  Cl  Cl202  1  0.06446851  0.52443461  0.62925784  1
  C  C203  1  0.17408936  0.57733796  0.68007997  1
  C  C204  1  0.08613032  0.73550463  0.87750356  1
  C  C205  1  0.17535372  0.65295297  0.89476510  1
  C  C206  1  0.18847570  0.62367006  0.94894618  1
  H  H207  1  0.09403296  0.63585181  0.95314028  1
  C  C208  1  0.12091670  0.63009546  0.95368354  1
  C  C209  1  0.14130090  0.65716799  0.90517070  1
  C  C210  1  0.01995762  0.54593827  0.45232881  1
  C  C211  1  0.22691519  0.73749369  0.26607246  1
  C  C212  1  0.10930356  0.52213105  0.44730539  1
  C  C213  1  0.14570695  0.67569911  0.40095049  1
  H  H214  1  0.19008808  0.67082965  0.84484981  1
  H  H215  1  0.21328290  0.61301982  0.94396884  1
  N  N216  1  0.12093191  0.68998021  0.75398739  1
  C  C217  1  0.06571740  0.61500071  0.74378951  1
  N  N218  1  0.02069309  0.66220096  0.37091235  1
  N  N219  1  0.09189463  0.62630355  0.55162582  1
  C  C220  1  0.14156940  0.59325583  0.62976984  1
  Zn  Zn221  1  0.05257096  0.65931993  0.50399157  1
  C  C222  1  0.10320615  0.71757564  0.72304883  1
  C  C223  1  0.01505785  0.57229516  0.53578835  1
  C  C224  1  0.20360800  0.59077238  0.64434053  1
  C  C225  1  0.12226680  0.62131352  0.49883847  1
  N  N226  1  0.08342422  0.73943932  0.77325370  1
  N  N227  1  0.14889611  0.60011671  0.51850839  1
  C  C228  1  0.04698799  0.64544961  0.77287350  1
  H  H229  1  0.05557977  0.67076227  0.73999178  1
  H  H230  1  0.07416007  0.56034031  0.79704682  1
  Cl  Cl231  1  0.23281183  0.66274478  0.25615601  1
  C  C232  1  0.13769954  0.60308911  0.01017587  1
  H  H233  1  0.12541360  0.58163561  0.06281030  1
  C  C234  1  0.20501244  0.53776475  0.80641329  1
  N  N235  1  0.17093781  0.59984415  0.00306014  1
  Cl  Cl236  1  0.09890801  0.72382146  0.55569292  1
  C  C237  1  0.12308058  0.68995318  0.85952308  1
  C  C238  1  0.05755333  0.58395846  0.80223305  1
  H  H239  1  0.01709640  0.62615960  0.12274427  1
  H  H240  1  0.15344411  0.53545276  0.78681253  1
  N  N241  1  0.01021272  0.61398255  0.88454279  1
  H  H242  1  0.04200637  0.71118032  0.61780511  1
  C  C243  1  0.02653261  0.58465200  0.86596498  1
  H  H244  1  0.20420056  0.61019273  0.57662562  1
  N  N245  1  0.11762876  0.59557544  0.70021726  1
  C  C246  1  0.02030606  0.64489779  0.84751989  1
  C  C247  1  0.00729364  0.64132189  0.18997579  1
  N  N248  1  0.00678737  0.54773948  0.35175541  1
  H  H249  1  0.21806242  0.50021752  0.30487806  1
  Cl  Cl250  1  0.04101968  0.51067975  0.86133385  1
  Cl  Cl251  1  0.22314052  0.50877536  0.91433006  1
  H  H252  1  0.24453334  0.71942105  0.30305059  1
  H  H253  1  0.23131576  0.74424493  0.74863069  1
  H  H254  1  0.24772945  0.61717668  0.13697701  1
  C  C255  1  0.24972830  0.52865951  0.18132068  1
  N  N256  1  0.17814351  0.74779633  0.14710825  1
  C  C257  1  0.04820887  0.95645988  0.22097636  1
  C  C258  1  0.05776745  0.91756934  0.16896138  1
  Cl  Cl259  1  0.18465666  0.75847401  0.63466799  1
  Cl  Cl260  1  0.19280618  0.85841973  0.16349493  1
  H  H261  1  0.19718220  0.81872892  0.30895341  1
  H  H262  1  0.05780049  0.87049540  0.24178333  1
  C  C263  1  0.07371753  0.89336255  0.25192100  1
  Cl  Cl264  1  0.22779419  0.93921343  0.29257713  1
  N  N265  1  0.01836172  0.95620504  0.26458441  1
  Zn  Zn266  1  0.11054818  0.91568640  0.15617196  1
  C  C267  1  0.02984201  0.90413538  0.09786111  1
  C  C268  1  0.08930347  0.99441199  0.77881960  1
  Cl  Cl269  1  0.10026744  0.89650332  0.37740074  1
  C  C270  1  0.20243100  0.79447367  0.25838130  1
  H  H271  1  0.01782281  0.82263752  0.60160041  1
  H  H272  1  0.19820198  0.95348885  0.13682434  1
  C  C273  1  0.03393796  0.78238551  0.10133593  1
  H  H274  1  0.16056448  0.79562535  0.13610236  1
  N  N275  1  0.00995970  0.79716102  0.61338945  1
  H  H276  1  0.12424180  0.95914967  0.37375433  1
  C  C277  1  0.18263689  0.78233532  0.16763489  1
  H  H278  1  0.02965203  0.79267521  0.18650053  1
  C  C279  1  0.03196311  0.76983106  0.61684650  1
  N  N280  1  0.00558824  0.79138855  0.04412886  1
  C  C281  1  0.19193377  0.98147625  0.13926849  1
  C  C282  1  0.22697702  0.77300957  0.30661097  1
  H  H283  1  0.02429342  0.91425765  0.01713113  1
  N  N284  1  0.13914507  0.93573611  0.00333890  1
  H  H285  1  0.17005017  0.88869344  0.00619840  1
  C  C286  1  0.13912013  0.97262697  0.00642851  1
  C  C287  1  0.11027879  0.97116884  0.86341883  1
  Cl  Cl288  1  0.16528048  0.92963166  0.48291052  1
  C  C289  1  0.01944830  0.98082934  0.33911668  1
  N  N290  1  0.14598031  0.80717034  0.88873401  1
  C  C291  1  0.00849174  0.88320639  0.15449923  1
  H  H292  1  0.18015396  0.81596610  0.00321364  1
  H  H293  1  0.10489195  0.77933201  0.46298498  1
  C  C294  1  0.16376512  0.99167637  0.07334157  1
  H  H295  1  0.15223319  0.86904854  0.41810806  1
  H  H296  1  0.09957651  0.82665299  0.40633291  1
  H  H297  1  0.05855695  0.77545129  0.59996381  1
  H  H298  1  0.00661115  0.93582437  0.50681218  1
  C  C299  1  0.23989270  0.85252312  0.90537582  1
  H  H300  1  0.24465326  0.95421801  0.47800460  1
  C  C301  1  0.15533166  0.86835174  0.96229011  1
  C  C302  1  0.16094307  0.83038149  0.95731129  1
  H  H303  1  0.11400994  0.79892744  0.77794145  1
  H  H304  1  0.18582607  0.98343949  0.43107355  1
  N  N305  1  0.11329603  0.93961826  0.82967821  1
  C  C306  1  0.12871632  0.92159492  0.90534037  1
  H  H307  1  0.09679653  0.87217383  0.75795467  1
  H  H308  1  0.23415004  0.88761646  0.39835560  1
  H  H309  1  0.19469422  0.88297017  0.59575837  1
  C  C310  1  0.16856835  0.80202607  0.57575136  1
  Cl  Cl311  1  0.07029899  0.82789480  0.67539236  1
  Cl  Cl312  1  0.00076642  0.85858463  0.29325100  1
  C  C313  1  0.14383507  0.81729879  0.50318775  1
  C  C314  1  0.11533029  0.80577905  0.44266881  1
  Cl  Cl315  1  0.08237645  0.78570345  0.27048875  1
  C  C316  1  0.11652799  0.85942060  0.81096669  1
  C  C317  1  0.15654675  0.85396518  0.49103714  1
  C  C318  1  0.12320251  0.82106579  0.82669116  1
  C  C319  1  0.18155139  0.85900396  0.57473200  1
  N  N320  1  0.11648960  0.99392388  0.95458174  1
  C  C321  1  0.13390576  0.88242483  0.88306243  1
  Zn  Zn322  1  0.22489687  0.81423511  0.71061252  1
  N  N323  1  0.18804104  0.82669424  0.61662239  1
  C  C324  1  0.00559097  0.78328352  0.94065900  1
  C  C325  1  0.06178197  0.76270316  0.06226183  1
  N  N326  1  0.07598274  0.97774992  0.20994912  1
  C  C327  1  0.06061988  0.75551446  0.94451081  1
  H  H328  1  0.21268079  0.85848727  0.88186218  1
  C  C329  1  0.13066676  0.98814068  0.38265477  1
  H  H330  1  0.24376508  0.88463717  0.05246712  1
  H  H331  1  0.03875350  0.97682915  0.81454583  1
  H  H332  1  0.08116850  0.75233269  0.11869599  1
  H  H333  1  0.24024968  0.99641397  0.21298629  1
  H  H334  1  0.03414769  0.76522543  0.79659015  1
  C  C335  1  0.03328241  0.76786614  0.88533683  1
  C  C336  1  0.05454655  0.99389557  0.76327387  1
  C  C337  1  0.07300558  0.99646787  0.30624316  1
  C  C338  1  0.42437487  0.10820894  0.47537390  1
  N  N339  1  0.35625138  0.09888483  0.19760620  1
  C  C340  1  0.32467366  0.09284537  0.21461854  1
  C  C341  1  0.31048481  0.10202938  0.32413755  1
  C  C342  1  0.31229429  0.13785395  0.36212945  1
  N  N343  1  0.30237174  0.07070472  0.15530809  1
  H  H344  1  0.32605405  0.15529596  0.30975264  1
  H  H345  1  0.29461317  0.04904384  0.37025994  1
  Cl  Cl346  1  0.44857959  0.08619333  0.36373179  1
  C  C347  1  0.29532790  0.07711046  0.39582020  1
  C  C348  1  0.31828940  0.04987495  0.08118438  1
  Zn  Zn349  1  0.39215263  0.12713547  0.34532932  1
  H  H350  1  0.27379800  0.14835351  0.13362489  1
  C  C351  1  0.36316424  0.07736569  0.10882524  1
  H  H352  1  0.26456636  0.21345089  0.84840093  1
  H  H353  1  0.41531148  0.09656492  0.55258760  1
  C  C354  1  0.39961500  0.18200283  0.32559626  1
  C  C355  1  0.41216006  0.14735720  0.49527560  1
  C  C356  1  0.39132991  0.17197884  0.43232807  1
  C  C357  1  0.39986254  0.08117651  0.07117670  1
  C  C358  1  0.42197682  0.16034202  0.61380656  1
  H  H359  1  0.37683489  0.19131560  0.47992930  1
  Cl  Cl360  1  0.30427075  0.21250833  0.33704390  1
  H  H361  1  0.38326134  0.20359523  0.31053833  1
  Cl  Cl362  1  0.43641374  0.18168721  0.21627594  1
  H  H363  1  0.39894993  0.03175986  0.99857578  1
  N  N364  1  0.39902980  0.17606818  0.67158226  1
  H  H365  1  0.45866093  0.03930615  0.91069762  1
  C  C366  1  0.29924874  0.14734323  0.46630563  1
  C  C367  1  0.27301302  0.22242367  0.76840116  1
  H  H368  1  0.34165010  0.19962572  0.96407943  1
  C  C369  1  0.28558607  0.08960982  0.50246988  1
  H  H370  1  0.29940169  0.17467575  0.49684067  1
  H  H371  1  0.25885789  0.21791716  0.49302684  1
  Zn  Zn372  1  0.48501994  0.12260909  0.53687477  1
  C  C373  1  0.42003764  0.11106428  0.09840618  1
  Zn  Zn374  1  0.27993137  0.13722689  0.70173551  1
  N  N375  1  0.34882751  0.05206083  0.04978434  1
  H  H376  1  0.47004524  0.13334804  0.08379821  1
  C  C377  1  0.39034576  0.23940780  0.87573928  1
  H  H378  1  0.48967606  0.09117432  0.98316967  1
  C  C379  1  0.41235559  0.18773634  0.76179128  1
  H  H380  1  0.27617662  0.07497262  0.57538976  1
  C  C381  1  0.44822098  0.05676651  0.97563471  1
  C  C382  1  0.46222481  0.17082408  0.75018786  1
  C  C383  1  0.29784899  0.01912798  0.02917323  1
  N  N384  1  0.45278734  0.15470152  0.64992885  1
  C  C385  1  0.45347375  0.11272084  0.06249252  1
  N  N386  1  0.29251339  0.12263757  0.54097882  1
  H  H387  1  0.46842141  0.17542058  0.95434698  1
  C  C388  1  0.35487104  0.19077065  0.88846702  1
  C  C389  1  0.38411083  0.20612647  0.84376535  1
  N  N390  1  0.31129931  0.14897575  0.81825792  1
  H  H391  1  0.34760967  0.16285879  0.73022955  1
  N  N392  1  0.44166177  0.18735905  0.81082508  1
  C  C393  1  0.27134314  0.22329832  0.57155997  1
  H  H394  1  0.26118925  0.24864715  0.26336262  1
  C  C395  1  0.34240447  0.16309262  0.81813306  1
  H  H396  1  0.40965612  0.13193513  0.15234314  1
  C  C397  1  0.41559642  0.05440974  0.01041187  1
  H  H398  1  0.32203947  0.15042038  0.97350170  1
  N  N399  1  0.46537706  0.08660975  0.00172779  1
  C  C400  1  0.30258569  0.14084962  0.91322105  1
  H  H401  1  0.46130855  0.16797411  0.43695962  1
  Cl  Cl402  1  0.26156235  0.11742168  0.90573951  1
  C  C403  1  0.25560504  0.21548488  0.66963027  1
  C  C404  1  0.49228223  0.16988929  0.92284761  1
  C  C405  1  0.30523511  0.23465404  0.57579712  1
  C  C406  1  0.27311140  0.02698832  0.95151672  1
  C  C407  1  0.49584275  0.16883465  0.80580861  1
  N  N408  1  0.48655316  0.16164674  0.42878170  1
  Cl  Cl409  1  0.25419107  0.02590440  0.47538929  1
  H  H410  1  0.41581274  0.24481068  0.84484063  1
  C  C411  1  0.30255867  0.24449064  0.75630650  1
  H  H412  1  0.49314276  0.14588131  0.36765083  1
  Zn  Zn413  1  0.25213046  0.07396413  0.18193242  1
  H  H414  1  0.27440916  0.05146661  0.90635750  1
  H  H415  1  0.31620353  0.24321985  0.50075187  1
  N  N416  1  0.31965034  0.24870449  0.66246241  1
  C  C417  1  0.42092903  0.42180367  0.05828319  1
  N  N418  1  0.34682267  0.35206547  0.39367733  1
  H  H419  1  0.31403998  0.27456366  0.36917162  1
  C  C420  1  0.29013165  0.32520920  0.40202098  1
  C  C421  1  0.37709605  0.42339572  0.17421415  1
  N  N422  1  0.40751706  0.43445324  0.14819507  1
  N  N423  1  0.35867924  0.39605660  0.13308793  1
  Zn  Zn424  1  0.34396331  0.35256128  0.22084212  1
  C  C425  1  0.35968537  0.44231656  0.26978663  1
  H  H426  1  0.25658633  0.42065964  0.60332561  1
  C  C427  1  0.29109247  0.28977005  0.36601495  1
  N  N428  1  0.29930405  0.35339346  0.14326284  1
  C  C429  1  0.37379548  0.39193121  0.03159963  1
  C  C430  1  0.29078772  0.32846996  0.07260164  1
  H  H431  1  0.30855977  0.30799030  0.06008451  1
  H  H432  1  0.32037583  0.46936398  0.98375632  1
  C  C433  1  0.32496907  0.44848782  0.27787700  1
  H  H434  1  0.28799487  0.39900072  0.21878958  1
  C  C435  1  0.27828347  0.38043027  0.15539541  1
  H  H436  1  0.30883063  0.43542182  0.21602166  1
  H  H437  1  0.40480837  0.45240304  0.78208425  1
  N  N438  1  0.29023527  0.48656612  0.74984582  1
  C  C439  1  0.26263662  0.27528972  0.30751331  1
  C  C440  1  0.37985942  0.46137081  0.34351117  1
  Cl  Cl441  1  0.28516733  0.25637939  0.98375379  1
  H  H442  1  0.45698359  0.48321699  0.12213982  1
  C  C443  1  0.26643097  0.46506241  0.71472965  1
  C  C444  1  0.46497242  0.47053798  0.04671870  1
  C  C445  1  0.45238223  0.35159500  0.39077337  1
  H  H446  1  0.46813027  0.33014149  0.36993561  1
  N  N447  1  0.47060162  0.38095028  0.40004797  1
  C  C448  1  0.39869548  0.38043384  0.43029953  1
  C  C449  1  0.41700868  0.35096674  0.40361187  1
  H  H450  1  0.40447769  0.32467038  0.40566418  1
  C  C451  1  0.31686768  0.34989974  0.44495186  1
  C  C452  1  0.36136496  0.37868951  0.46086314  1
  H  H453  1  0.30560930  0.40610825  0.01149288  1
  C  C454  1  0.41894527  0.40987235  0.46040069  1
  H  H455  1  0.40722345  0.43346269  0.49817062  1
  H  H456  1  0.47283252  0.43107021  0.45216456  1
  C  C457  1  0.25960874  0.34265885  0.38907378  1
  C  C458  1  0.45423411  0.40886140  0.43942493  1
  N  N459  1  0.40393376  0.39969227  0.99718713  1
  N  N460  1  0.49321421  0.47855883  0.87744695  1
  C  C461  1  0.46204882  0.42480697  0.90464316  1
  C  C462  1  0.29795702  0.37864292  0.85481940  1
  C  C463  1  0.45070699  0.43767095  0.01055399  1
  Cl  Cl464  1  0.44996930  0.27120970  0.34946534  1
  C  C465  1  0.35013231  0.37931017  0.94095978  1
  Cl  Cl466  1  0.39449620  0.29742608  0.77193445  1
  C  C467  1  0.33312886  0.45077962  0.66811607  1
  Zn  Zn468  1  0.27177450  0.34526922  0.65638566  1
  H  H469  1  0.40717415  0.45954190  0.33806503  1
  C  C470  1  0.31686953  0.39087365  0.94304096  1
  C  C471  1  0.33474374  0.34024227  0.78320445  1
  H  H472  1  0.36000222  0.44698864  0.65097681  1
  C  C473  1  0.32097211  0.48173865  0.71521252  1
  H  H474  1  0.45105898  0.39974341  0.87638128  1
  H  H475  1  0.25324770  0.30738607  0.96194108  1
  H  H476  1  0.26739398  0.28439469  0.79568641  1
  C  C477  1  0.30892657  0.42491550  0.63394929  1
  C  C478  1  0.31204928  0.47402163  0.35640568  1
  H  H479  1  0.38597707  0.35257828  0.84227210  1
  H  H480  1  0.27299999  0.38751147  0.83362144  1
  C  C481  1  0.25993220  0.32892835  0.01114672  1
  N  N482  1  0.30527718  0.35576975  0.77550060  1
  C  C483  1  0.27552311  0.43381816  0.64995057  1
  H  H484  1  0.34128815  0.32058112  0.71593490  1
  N  N485  1  0.39087906  0.46959116  0.83068273  1
  N  N486  1  0.30094137  0.36998804  0.52466539  1
  C  C487  1  0.32222207  0.39680695  0.56147018  1
  H  H488  1  0.31730862  0.25717967  0.82517096  1
  C  C489  1  0.48155583  0.44747356  0.84228401  1
  C  C490  1  0.35895076  0.35659453  0.85525515  1
  N  N491  1  0.35374125  0.40174763  0.53766701  1
  H  H492  1  0.36268584  0.42781841  0.87518743  1
  H  H493  1  0.25803840  0.37038635  0.41980526  1
  C  C494  1  0.36593344  0.45676065  0.89120134  1
  C  C495  1  0.34511093  0.47777994  0.95517571  1
  H  H496  1  0.28667810  0.48302426  0.36841395  1
  C  C497  1  0.36542038  0.48651451  0.41819475  1
  Cl  Cl498  1  0.43903307  0.48554411  0.47631961  1
  C  C499  1  0.48596369  0.48936191  0.98026252  1
  Cl  Cl500  1  0.25365736  0.45169706  0.23159877  1
  Cl  Cl501  1  0.36663373  0.26832949  0.98617198  1
  N  N502  1  0.33238905  0.49126589  0.42163453  1
  H  H503  1  0.49547401  0.49963696  0.51870425  1
  Cl  Cl504  1  0.49211487  0.44906993  0.68781129  1
  N  N505  1  0.29780963  0.53569990  0.99470179  1
  C  C506  1  0.28545279  0.56592360  0.04477010  1
  N  N507  1  0.29525310  0.60255431  0.02690103  1
  N  N508  1  0.34657452  0.56921034  0.06349483  1
  C  C509  1  0.32715301  0.59769443  0.07031856  1
  C  C510  1  0.33079755  0.54186899  0.01346345  1
  C  C511  1  0.33777108  0.63043887  0.13991922  1
  H  H512  1  0.36448995  0.66675646  0.02676400  1
  C  C513  1  0.34680299  0.66667998  0.09721495  1
  C  C514  1  0.45613848  0.62412914  0.23860688  1
  C  C515  1  0.34003842  0.69932673  0.15272244  1
  C  C516  1  0.35405847  0.51422877  0.96368262  1
  H  H517  1  0.35175071  0.53897501  0.31392274  1
  Cl  Cl518  1  0.39752667  0.57489682  0.40125147  1
  H  H519  1  0.36334587  0.64752575  0.29325256  1
  Cl  Cl520  1  0.40956526  0.69244495  0.12954287  1
  H  H521  1  0.32959200  0.56612681  0.23542163  1
  H  H522  1  0.44848506  0.54813702  0.47689889  1
  C  C523  1  0.35353976  0.62468491  0.25086556  1
  C  C524  1  0.36631062  0.59599539  0.30197427  1
  Zn  Zn525  1  0.29573455  0.66486493  0.14473958  1
  C  C526  1  0.27400069  0.74107159  0.64882197  1
  N  N527  1  0.34806389  0.56509724  0.29004816  1
  H  H528  1  0.43461913  0.63346594  0.28702119  1
  H  H529  1  0.43920462  0.57232181  0.17791653  1
  H  H530  1  0.37325290  0.72851802  0.53178863  1
  C  C531  1  0.45834452  0.59103476  0.18380688  1
  H  H532  1  0.44888125  0.67903363  0.00564927  1
  H  H533  1  0.32023827  0.71581365  0.70801689  1
  N  N534  1  0.48295382  0.57475540  0.13455967  1
  N  N535  1  0.27306150  0.67082753  0.78067475  1
  C  C536  1  0.46370834  0.70426950  0.02249380  1
  C  C537  1  0.38383292  0.52500914  0.91624589  1
  H  H538  1  0.25876744  0.58207049  0.65837239  1
  H  H539  1  0.39043390  0.55337385  0.91586924  1
  N  N540  1  0.47320526  0.70750633  0.29656385  1
  H  H541  1  0.35907133  0.70171076  0.41991781  1
  H  H542  1  0.27466014  0.57622631  0.88276784  1
  Zn  Zn543  1  0.27966569  0.53532722  0.82244305  1
  H  H544  1  0.30728187  0.73607157  0.46629538  1
  C  C545  1  0.25448861  0.72883570  0.73430204  1
  H  H546  1  0.42704260  0.50416009  0.81432894  1
  Cl  Cl547  1  0.36884259  0.56060886  0.64026715  1
  C  C548  1  0.45770740  0.61700422  0.75812060  1
  H  H549  1  0.27857414  0.66924551  0.69919226  1
  H  H550  1  0.49007906  0.62994457  0.90365586  1
  Cl  Cl551  1  0.25735338  0.62390629  0.52538565  1
  C  C552  1  0.35584735  0.70750649  0.50875651  1
  C  C553  1  0.43765383  0.70681942  0.72079519  1
  C  C554  1  0.45064572  0.58552444  0.70405309  1
  N  N555  1  0.41346118  0.70672734  0.63619088  1
  C  C556  1  0.30647750  0.72393645  0.63426034  1
  C  C557  1  0.44386224  0.74341194  0.76338519  1
  C  C558  1  0.47552763  0.55398969  0.48349991  1
  C  C559  1  0.44030254  0.65065982  0.72268125  1
  H  H560  1  0.25837429  0.50455210  0.13520612  1
  C  C561  1  0.48312345  0.61033765  0.83956798  1
  C  C562  1  0.39693490  0.67572527  0.62494932  1
  H  H563  1  0.33789437  0.50402672  0.73690107  1
  Cl  Cl564  1  0.31926656  0.72583632  0.27754784  1
  H  H565  1  0.46317282  0.71780760  0.10464360  1
  C  C566  1  0.36561373  0.67336866  0.56956612  1
  C  C567  1  0.26050724  0.56191522  0.13656202  1
  C  C568  1  0.49326219  0.68303481  0.25594629  1
  C  C569  1  0.35059975  0.64023007  0.56300526  1
  H  H570  1  0.43323399  0.58577638  0.63829223  1
  C  C571  1  0.46586392  0.55220138  0.72074736  1
  C  C572  1  0.26049882  0.69968294  0.81164009  1
  H  H573  1  0.31513108  0.60483075  0.49885422  1
  H  H574  1  0.36762624  0.62089524  0.60272227  1
  N  N575  1  0.31037433  0.57822468  0.77607362  1
  N  N576  1  0.45523978  0.68056261  0.76312811  1
  C  C577  1  0.32045988  0.72300271  0.53070920  1
  C  C578  1  0.33416991  0.58026018  0.72621373  1
  C  C579  1  0.31890358  0.63225902  0.51564167  1
  N  N580  1  0.41243089  0.64803447  0.66510876  1
  Zn  Zn581  1  0.28961321  0.61932248  0.86135111  1
  H  H582  1  0.46185808  0.52892907  0.66792330  1
  H  H583  1  0.30802125  0.65295480  0.46011259  1
  C  C584  1  0.48452435  0.64586149  0.22489764  1
  H  H585  1  0.35428511  0.72397133  0.12642302  1
  C  C586  1  0.40250228  0.50139897  0.85440184  1
  N  N587  1  0.48099387  0.58898847  0.49038904  1
  N  N588  1  0.49007291  0.71038269  0.95873721  1
  N  N589  1  0.49180722  0.55094732  0.78526648  1
  Zn  Zn590  1  0.42753336  0.74073706  0.47848599  1
  C  C591  1  0.48565887  0.73955377  0.32013051  1
  H  H592  1  0.38003674  0.50528949  0.47064985  1
  H  H593  1  0.49797317  0.51485596  0.99825530  1
  Cl  Cl594  1  0.25604123  0.68817302  0.95572268  1
  H  H595  1  0.49203079  0.74715182  0.07151081  1
  N  N596  1  0.47629138  0.82585076  0.87133792  1
  N  N597  1  0.37417446  0.89965945  0.17618706  1
  N  N598  1  0.34530939  0.88864413  0.01256630  1
  C  C599  1  0.34617179  0.88916672  0.21644467  1
  C  C600  1  0.37221654  0.89896419  0.06733942  1
  C  C601  1  0.35407857  0.88472743  0.34316563  1
  C  C602  1  0.36729078  0.85211302  0.37595287  1
  H  H603  1  0.37310481  0.83242294  0.31192416  1
  C  C604  1  0.35838961  0.90098885  0.53015395  1
  C  C605  1  0.35209455  0.91085242  0.42102091  1
  N  N606  1  0.31531228  0.87650709  0.18243500  1
  C  C607  1  0.31837740  0.87929917  0.07083325  1
  C  C608  1  0.40829611  0.93078543  0.92098247  1
  H  H609  1  0.34451669  0.93812322  0.39241305  1
  H  H610  1  0.46867991  0.85062412  0.88990966  1
  C  C611  1  0.26796113  0.76890343  0.56251961  1
  H  H612  1  0.38085549  0.82051170  0.52984440  1
  C  C613  1  0.40574106  0.90868814  0.01306181  1
  N  N614  1  0.25767453  0.82006975  0.40278774  1
  C  C615  1  0.42785639  0.76680964  0.32369172  1
  C  C616  1  0.43978825  0.93843022  0.88047265  1
  C  C617  1  0.30548266  0.84090856  0.92033852  1
  H  H618  1  0.38585494  0.94377908  0.88775686  1
  N  N619  1  0.27474963  0.93812338  0.59516828  1
  N  N620  1  0.26529728  0.80386945  0.59455455  1
  H  H621  1  0.49804169  0.75909506  0.77135718  1
  H  H622  1  0.33203683  0.84280934  0.91425189  1
  C  C623  1  0.45980815  0.76404586  0.37143086  1
  N  N624  1  0.26032308  0.75785865  0.46505211  1
  C  C625  1  0.41461913  0.76169398  0.80317533  1
  H  H626  1  0.49114852  0.76889352  0.50353945  1
  H  H627  1  0.40596976  0.81356672  0.89147622  1
  C  C628  1  0.42191755  0.79634268  0.84530965  1
  H  H629  1  0.44721657  0.95432273  0.80875083  1
  H  H630  1  0.48870440  0.89377163  0.02501808  1
  C  C631  1  0.28489674  0.82098340  0.84440370  1
  Cl  Cl632  1  0.35027626  0.79210241  0.81233535  1
  C  C633  1  0.25916402  0.93010582  0.49908794  1
  Cl  Cl634  1  0.44329229  0.81245262  0.57311351  1
  C  C635  1  0.47100178  0.76625383  0.78617024  1
  H  H636  1  0.31827977  0.97653243  0.13377851  1
  H  H637  1  0.43543215  0.87850377  0.13043141  1
  C  C638  1  0.29084911  0.86255660  0.00047418  1
  C  C639  1  0.45803849  0.79895174  0.83539728  1
  H  H640  1  0.36060377  0.91652491  0.60513850  1
  C  C641  1  0.43520246  0.89369000  0.05468164  1
  Cl  Cl642  1  0.47133287  0.96300331  0.60620608  1
  C  C643  1  0.26369260  0.82818598  0.50549872  1
  N  N644  1  0.36744654  0.87061902  0.56901445  1
  H  H645  1  0.29289112  0.85569458  0.67398065  1
  H  H646  1  0.29375972  0.80729100  0.77230122  1
  C  C647  1  0.37268603  0.84559212  0.48995446  1
  C  C648  1  0.28811278  0.91223598  0.65160500  1
  Cl  Cl649  1  0.46545588  0.82404858  0.13657305  1
  Zn  Zn650  1  0.28101734  0.84573653  0.27185123  1
  C  C651  1  0.28483965  0.87683347  0.61754529  1
  Cl  Cl652  1  0.30903950  0.94004629  0.75753611  1
  C  C653  1  0.46640528  0.77974824  0.47890581  1
  C  C654  1  0.26852376  0.86760653  0.51992184  1
  Cl  Cl655  1  0.37962600  0.77085602  0.34601193  1
  H  H656  1  0.27827465  0.96385937  0.61703783  1
  N  N657  1  0.46729201  0.92503207  0.91512969  1
  C  C658  1  0.46469744  0.90382897  0.00099130  1
  C  C659  1  0.29927642  0.98468740  0.07259415  1
  C  C660  1  0.27568713  0.96063876  0.03100571  1
  H  H661  1  0.27492378  0.93142750  0.05261929  1
  C  C662  1  0.25003873  0.78536110  0.39933996  1
  H  H663  1  0.49146907  0.88842167  0.71962297  1
  C  C664  1  0.25367723  0.89571754  0.45928101  1
  C  C665  1  0.25669447  0.86816683  0.99373908  1
  N  N666  1  0.25305324  0.83020348  0.83674200  1
  H  H667  1  0.43007184  0.76827171  0.23182925  1
  H  H668  1  0.49797164  0.87978625  0.21552883  1
  N  N669  1  0.25349114  0.96804649  0.95851264  1
  H  H670  1  0.38978145  0.75018803  0.79243394  1
  H  H671  1  0.74884201  0.12129943  0.42239534  1
  C  C672  1  0.73543266  0.11158222  0.34306161  1
  C  C673  1  0.70535735  0.09319038  0.35475640  1
  N  N674  1  0.65386721  0.08087848  0.44863138  1
  C  C675  1  0.68639008  0.08538419  0.45738167  1
  H  H676  1  0.67292121  0.05792192  0.26646722  1
  C  C677  1  0.69363533  0.07658237  0.25874413  1
  H  H678  1  0.51412514  0.04638280  0.20315965  1
  C  C679  1  0.57607036  0.09034872  0.59833333  1
  C  C680  1  0.67349379  0.01666747  0.77313982  1
  C  C681  1  0.64581004  0.18671058  0.49634763  1
  H  H682  1  0.61955986  0.19134724  0.47868711  1
  H  H683  1  0.58249844  0.10700940  0.67187673  1
  C  C684  1  0.71206965  0.07976697  0.15989730  1
  Zn  Zn685  1  0.62391649  0.01759008  0.79495560  1
  H  H686  1  0.58315260  0.16436132  0.83829064  1
  C  C687  1  0.56251044  0.05044120  0.86247536  1
  C  C688  1  0.69440269  0.16719454  0.60554003  1
  H  H689  1  0.59372674  0.03125615  0.39620917  1
  H  H690  1  0.73450498  0.02996018  0.43325094  1
  N  N691  1  0.56227998  0.05142656  0.18176595  1
  H  H692  1  0.66254596  0.23352730  0.64565589  1
  N  N693  1  0.74071564  0.09927595  0.14830074  1
  C  C694  1  0.59117688  0.03751364  0.14742520  1
  H  H695  1  0.51360788  0.10039001  0.67977456  1
  C  C696  1  0.66553001  0.24972102  0.71412365  1
  C  C697  1  0.54420654  0.07831896  0.56199811  1
  C  C698  1  0.68061726  0.22003109  0.08356522  1
  H  H699  1  0.68736955  0.00434507  0.84498207  1
  C  C700  1  0.59547077  0.00197175  0.10417534  1
  C  C701  1  0.53602875  0.03154847  0.16882726  1
  N  N702  1  0.70262524  0.22347893  0.16453370  1
  H  H703  1  0.61079735  0.05866997  0.15701805  1
  H  H704  1  0.52795228  0.04266472  0.42677553  1
  H  H705  1  0.67210068  0.20083433  0.92072109  1
  C  C706  1  0.58249362  0.04591579  0.46085723  1
  H  H707  1  0.70583875  0.07020349  0.07836715  1
  C  C708  1  0.73745577  0.17841707  0.08160858  1
  C  C709  1  0.71193054  0.19181130  0.54041218  1
  H  H710  1  0.73860233  0.18899303  0.54559634  1
  H  H711  1  0.58347379  0.06847175  0.85939405  1
  C  C712  1  0.67817440  0.06668145  0.64098536  1
  C  C713  1  0.73006672  0.20290671  0.16760857  1
  N  N714  1  0.70035947  0.07770309  0.55792246  1
  C  C715  1  0.68728039  0.19971381  0.99292367  1
  H  H716  1  0.70673687  0.23717907  0.41079622  1
  C  C717  1  0.73168471  0.03968470  0.89010397  1
  C  C718  1  0.69682766  0.21444547  0.45875079  1
  C  C719  1  0.71647415  0.17832853  0.98652574  1
  N  N720  1  0.66472006  0.20875099  0.43676257  1
  Cl  Cl721  1  0.66267645  0.03238753  0.10113089  1
  C  C722  1  0.59853412  0.06973195  0.53540169  1
  Cl  Cl723  1  0.59295488  0.16859607  0.65073968  1
  N  N724  1  0.51560178  0.08784358  0.60482231  1
  C  C725  1  0.66067071  0.16255217  0.57650934  1
  N  N726  1  0.64584136  0.06360609  0.63979443  1
  C  C727  1  0.71386141  0.14977201  0.69971266  1
  N  N728  1  0.70300012  0.16267525  0.79617789  1
  C  C729  1  0.63571307  0.07173546  0.53800004  1
  H  H730  1  0.53591832  0.17724863  0.69013746  1
  C  C731  1  0.72322060  0.16230207  0.87917964  1
  H  H732  1  0.64559726  0.14280717  0.61493287  1
  H  H733  1  0.72540813  0.08833874  0.80046920  1
  N  N734  1  0.57515858  0.02399189  0.83554105  1
  C  C735  1  0.54835946  0.05253357  0.47442382  1
  C  C736  1  0.69064267  0.04711555  0.74216861  1
  C  C737  1  0.71666096  0.06066026  0.80985917  1
  H  H738  1  0.65910025  0.23703633  0.09246100  1
  C  C739  1  0.55537251  0.16445750  0.85310775  1
  Cl  Cl740  1  0.53115285  0.15335937  0.14069212  1
  C  C741  1  0.51877158  0.16149022  0.99290533  1
  C  C742  1  0.52929731  0.16913841  0.77358787  1
  H  H743  1  0.74321013  0.20396878  0.24485804  1
  N  N744  1  0.55000291  0.16249721  0.95961699  1
  N  N745  1  0.74192275  0.13296270  0.67010933  1
  Zn  Zn746  1  0.50101719  0.20947493  0.37187359  1
  H  H747  1  0.71921267  0.24765428  0.75170644  1
  Zn  Zn748  1  0.74669329  0.08527348  0.58120442  1
  Cl  Cl749  1  0.51443021  0.04101324  0.86622487  1
  C  C750  1  0.71660167  0.38171446  0.33733293  1
  H  H751  1  0.69814391  0.39779713  0.29055299  1
  Cl  Cl752  1  0.71790785  0.34286712  0.42834564  1
  Zn  Zn753  1  0.65417247  0.43042518  0.48747066  1
  C  C754  1  0.71225248  0.43578544  0.70440641  1
  N  N755  1  0.63657392  0.26453210  0.72076245  1
  H  H756  1  0.72537479  0.35288642  0.72938553  1
  C  C757  1  0.63305554  0.29106734  0.79045201  1
  C  C758  1  0.60407998  0.42913470  0.96508355  1
  C  C759  1  0.69418299  0.25795255  0.77319740  1
  C  C760  1  0.69126190  0.28392980  0.85309660  1
  C  C761  1  0.73147709  0.37906414  0.69476612  1
  C  C762  1  0.73634551  0.44872487  0.63304753  1
  N  N763  1  0.70723948  0.40160886  0.71991679  1
  C  C764  1  0.59469913  0.46466243  0.80102033  1
  H  H765  1  0.72146653  0.42727896  0.24721175  1
  C  C766  1  0.59686534  0.43013136  0.84989752  1
  H  H767  1  0.58871159  0.40486197  0.40909819  1
  C  C768  1  0.65873090  0.29807037  0.87136497  1
  H  H769  1  0.65558464  0.31686882  0.93935979  1
  H  H770  1  0.69220088  0.45116986  0.74521942  1
  N  N771  1  0.74384221  0.26476226  0.92425152  1
  C  C772  1  0.59502788  0.47595123  0.50510939  1
  N  N773  1  0.60012998  0.46256605  0.60619846  1
  C  C774  1  0.72309670  0.29226911  0.91352302  1
  H  H775  1  0.58373975  0.40724789  0.80607396  1
  N  N776  1  0.72875696  0.32718645  0.92982402  1
  H  H777  1  0.73097197  0.40680555  0.93494379  1
  N  N778  1  0.60941936  0.45714615  0.02944991  1
  H  H779  1  0.60489042  0.40408081  0.01081653  1
  H  H780  1  0.60802963  0.30265395  0.79161558  1
  H  H781  1  0.73395162  0.47704177  0.60376509  1
  C  C782  1  0.61384900  0.41566034  0.38208961  1
  C  C783  1  0.61629427  0.45636226  0.41445400  1
  Cl  Cl784  1  0.61645074  0.35760640  0.87707996  1
  C  C785  1  0.58388686  0.47520766  0.69096608  1
  Cl  Cl786  1  0.64095624  0.38085875  0.30068140  1
  C  C787  1  0.50004614  0.26733308  0.33619586  1
  Zn  Zn788  1  0.61837363  0.45055585  0.22960760  1
  N  N789  1  0.74698258  0.39267453  0.32870842  1
  C  C790  1  0.61689362  0.48855468  0.97845652  1
  C  C791  1  0.64242191  0.47987556  0.36260410  1
  Cl  Cl792  1  0.68438378  0.47177588  0.28648285  1
  C  C793  1  0.74653731  0.42366268  0.27950770  1
  C  C794  1  0.60435024  0.49316471  0.86837732  1
  Cl  Cl795  1  0.57632218  0.25437561  0.31920737  1
  C  C796  1  0.52866268  0.25588255  0.33035168  1
  N  N797  1  0.66895695  0.66370687  0.05681827  1
  H  H798  1  0.61146143  0.62526286  0.23064627  1
  H  H799  1  0.62360382  0.64469455  0.01678183  1
  C  C800  1  0.63437215  0.63837949  0.20179307  1
  H  H801  1  0.71383481  0.68246630  0.09408220  1
  C  C802  1  0.69260215  0.66817220  0.12907905  1
  C  C803  1  0.64157410  0.64559461  0.08781809  1
  C  C804  1  0.69160862  0.65416152  0.24189083  1
  C  C805  1  0.66013143  0.64258912  0.27995486  1
  H  H806  1  0.71230386  0.65413796  0.29729296  1
  H  H807  1  0.60234919  0.52008956  0.83538340  1
  C  C808  1  0.60545967  0.73918087  0.72165532  1
  C  C809  1  0.65634658  0.63125242  0.39809061  1
  N  N810  1  0.68088768  0.61808539  0.45326194  1
  Cl  Cl811  1  0.57692911  0.61778706  0.07730414  1
  N  N812  1  0.62736089  0.63604750  0.44330715  1
  H  H813  1  0.53698450  0.64112076  0.18547853  1
  H  H814  1  0.63098330  0.50735129  0.03006296  1
  N  N815  1  0.52391884  0.69360035  0.23285988  1
  C  C816  1  0.53908636  0.57713559  0.53361810  1
  H  H817  1  0.57055011  0.70896986  0.07913480  1
  Cl  Cl818  1  0.51946427  0.71919109  0.62119617  1
  H  H819  1  0.63622541  0.71615518  0.06841038  1
  Cl  Cl820  1  0.60146004  0.70063352  0.92126440  1
  C  C821  1  0.72068788  0.65065760  0.74075182  1
  H  H822  1  0.69568658  0.55910387  0.01196030  1
  C  C823  1  0.50184777  0.57878607  0.83989308  1
  C  C824  1  0.53387001  0.72597358  0.26267328  1
  C  C825  1  0.55918328  0.51215228  0.56414223  1
  C  C826  1  0.51100857  0.59343161  0.13219302  1
  H  H827  1  0.63915214  0.50654594  0.40779709  1
  N  N828  1  0.56056948  0.50136281  0.67187795  1
  H  H829  1  0.73990562  0.69782384  0.91318883  1
  H  H830  1  0.53234470  0.57920939  0.10601818  1
  C  C831  1  0.50449096  0.73831787  0.99431182  1
  C  C832  1  0.68977688  0.69560594  0.66546736  1
  N  N833  1  0.69030885  0.67022557  0.74707169  1
  C  C834  1  0.51121765  0.59919531  0.51845899  1
  C  C835  1  0.70248415  0.60165413  0.88214144  1
  C  C836  1  0.51244473  0.62745026  0.18346382  1
  C  C837  1  0.72610075  0.62475139  0.83068870  1
  N  N838  1  0.64673648  0.60862612  0.61381014  1
  C  C839  1  0.55465670  0.63449873  0.75980836  1
  C  C840  1  0.67431978  0.60485577  0.55509996  1
  N  N841  1  0.71460026  0.70147588  0.59700108  1
  N  N842  1  0.74185870  0.58042348  0.02197683  1
  C  C843  1  0.71191497  0.57850188  0.97083521  1
  C  C844  1  0.53288123  0.54097629  0.53668899  1
  H  H845  1  0.58288273  0.68292361  0.51631521  1
  C  C846  1  0.66187444  0.71954528  0.66579578  1
  H  H847  1  0.54313104  0.62412276  0.83656291  1
  C  C848  1  0.73219859  0.53644493  0.70152028  1
  H  H849  1  0.59162650  0.59403589  0.74632856  1
  H  H850  1  0.62749134  0.68583790  0.75344590  1
  H  H851  1  0.68190802  0.55496468  0.72242477  1
  C  C852  1  0.73277843  0.72352294  0.95248608  1
  C  C853  1  0.70416420  0.58481628  0.59705663  1
  C  C854  1  0.70474077  0.55807494  0.67668150  1
  C  C855  1  0.57588818  0.66545584  0.58316837  1
  H  H856  1  0.67611322  0.60201930  0.85590951  1
  C  C857  1  0.54941321  0.68168868  0.63851480  1
  C  C858  1  0.62518816  0.62549703  0.54753942  1
  Cl  Cl859  1  0.64913793  0.54830197  0.89164222  1
  C  C860  1  0.58184570  0.61851180  0.70787570  1
  H  H861  1  0.56573123  0.58402997  0.54372109  1
  C  C862  1  0.57114550  0.73456101  0.24414509  1
  H  H863  1  0.73419121  0.51459460  0.76272314  1
  N  N864  1  0.54128444  0.66536343  0.72946262  1
  Cl  Cl865  1  0.53895599  0.56020876  0.91366981  1
  C  C866  1  0.73569947  0.58569426  0.53688477  1
  C  C867  1  0.63091490  0.71279955  0.71684753  1
  Zn  Zn868  1  0.67501468  0.68407523  0.90560483  1
  C  C869  1  0.59462942  0.63538021  0.61571767  1
  N  N870  1  0.69899538  0.72706005  0.94814235  1
  C  C871  1  0.62127469  0.72584516  0.13715029  1
  H  H872  1  0.74220254  0.60926063  0.48998519  1
  C  C873  1  0.50045988  0.52816490  0.51870926  1
  C  C874  1  0.74116049  0.68000109  0.60914552  1
  C  C875  1  0.58582077  0.72221814  0.14573470  1
  H  H876  1  0.51202020  0.62766608  0.51624678  1
  Zn  Zn877  1  0.50405106  0.68821501  0.81396891  1
  H  H878  1  0.74684391  0.69627205  0.40951851  1
  H  H879  1  0.58349184  0.74317650  0.78114283  1
  Zn  Zn880  1  0.51997125  0.50640828  0.77995110  1
  N  N881  1  0.74656091  0.65333526  0.67796956  1
  N  N882  1  0.63999177  0.74098284  0.21292373  1
  N  N883  1  0.57384252  0.50033447  0.47698955  1
  C  C884  1  0.53936570  0.85984157  0.18427838  1
  C  C885  1  0.55839349  0.87527164  0.37336596  1
  C  C886  1  0.56068814  0.84919471  0.27492042  1
  H  H887  1  0.58588313  0.84351080  0.25312540  1
  N  N888  1  0.57477020  0.90547517  0.37495985  1
  H  H889  1  0.54347946  0.87060587  0.44440461  1
  Zn  Zn890  1  0.52593762  0.80889406  0.24195827  1
  H  H891  1  0.66932292  0.94866533  0.28444683  1
  C  C892  1  0.67582815  0.92957164  0.22292663  1
  C  C893  1  0.56959571  0.92273223  0.46454700  1
  Cl  Cl894  1  0.51902466  0.81721331  0.59842613  1
  C  C895  1  0.54870739  0.90532930  0.93481885  1
  Zn  Zn896  1  0.60318696  0.92233242  0.25448917  1
  C  C897  1  0.55028460  0.88609566  0.09862996  1
  N  N898  1  0.52071554  0.97007933  0.71138182  1
  N  N899  1  0.56410091  0.91891752  0.12870311  1
  N  N900  1  0.64881925  0.91168197  0.19278537  1
  Zn  Zn901  1  0.55472359  0.98012561  0.81761635  1
  C  C902  1  0.56358461  0.94464269  0.04779352  1
  C  C903  1  0.65526335  0.88406877  0.12138876  1
  H  H904  1  0.63058770  0.87078613  0.10499083  1
  Cl  Cl905  1  0.68232507  0.80476995  0.44414017  1
  C  C906  1  0.56556046  0.98294525  0.08695539  1
  C  C907  1  0.53961009  0.89520812  0.81225701  1
  H  H908  1  0.69414776  0.80083205  0.10143182  1
  C  C909  1  0.70591650  0.78040569  0.04916396  1
  H  H910  1  0.70859009  0.84521221  0.33250227  1
  C  C911  1  0.70887302  0.92395651  0.18012105  1
  C  C912  1  0.68619035  0.75824443  0.97842235  1
  C  C913  1  0.71557960  0.89854303  0.09855964  1
  Zn  Zn914  1  0.52121593  0.84076127  0.81258071  1
  N  N915  1  0.72922080  0.90302133  0.52123521  1
  Cl  Cl916  1  0.63692346  0.94941062  0.71676537  1
  C  C917  1  0.68624247  0.87899691  0.07053256  1
  H  H918  1  0.68982205  0.85922951  0.00362898  1
  N  N919  1  0.54557593  0.87632154  0.99762889  1
  Cl  Cl920  1  0.64473677  0.81875624  0.01273665  1
  N  N921  1  0.55629585  0.94007582  0.94509345  1
  H  H922  1  0.72967085  0.93574142  0.22308752  1
  C  C923  1  0.66015707  0.98920046  0.70832116  1
  Cl  Cl924  1  0.59226424  0.96587811  0.43956888  1
  H  H925  1  0.58838267  0.87467965  0.78017605  1
  H  H926  1  0.58080410  0.83294940  0.65953660  1
  H  H927  1  0.58300511  0.76058857  0.40331237  1
  Cl  Cl928  1  0.71617487  0.98336395  0.32479112  1
  C  C929  1  0.55601027  0.84294949  0.68792306  1
  H  H930  1  0.64435125  0.75950807  0.37266750  1
  C  C931  1  0.56140122  0.87019924  0.75932415  1
  C  C932  1  0.71244799  0.87331102  0.48904387  1
  H  H933  1  0.68661564  0.87146936  0.51547849  1
  Cl  Cl934  1  0.60691803  0.80811838  0.50118757  1
  H  H935  1  0.55478655  0.90705784  0.52531796  1
  H  H936  1  0.66861503  0.99555428  0.62029082  1
  C  C937  1  0.63096673  0.77235189  0.58974411  1
  H  H938  1  0.51801591  0.99432114  0.68292781  1
  Cl  Cl939  1  0.54031502  0.75149231  0.90696918  1
  C  C940  1  0.72638794  0.85643289  0.39138700  1
  N  N941  1  0.51650918  0.75318043  0.30121804  1
  N  N942  1  0.60366862  0.76452989  0.64213263  1
  C  C943  1  0.50993414  0.90891522  0.74205491  1
  C  C944  1  0.59087159  0.75101658  0.32287425  1
  H  H945  1  0.65849852  0.75889908  0.97857255  1
  H  H946  1  0.51380564  0.98166215  0.11286491  1
  C  C947  1  0.62654181  0.75135852  0.30701999  1
  H  H948  1  0.61770981  0.98981449  0.07576112  1
  C  C949  1  0.50510238  0.85225850  0.18618028  1
  Cl  Cl950  1  0.73865579  0.99141558  0.94879928  1
  C  C951  1  0.74097744  0.77706982  0.05886767  1
  H  H952  1  0.74154166  0.85819376  0.74919066  1
  C  C953  1  0.53578368  0.99673338  0.12948109  1
  C  C954  1  0.50297899  0.94156384  0.69698566  1
  C  C955  1  0.74942004  0.89309212  0.05912511  1
  C  C956  1  0.66073319  0.75340134  0.61095792  1
  H  H957  1  0.68445130  0.76509830  0.58797301  1
  C  C958  1  0.77566438  0.02471874  0.30589501  1
  C  C959  1  0.80996284  0.03099815  0.28190679  1
  N  N960  1  0.77704104  0.05679238  0.47848190  1
  C  C961  1  0.82430847  0.04953793  0.36870216  1
  C  C962  1  0.91020794  0.20296453  0.29520930  1
  C  C963  1  0.91111723  0.17830522  0.39729618  1
  N  N964  1  0.93470655  0.20940134  0.22252366  1
  H  H965  1  0.88048378  0.14480485  0.31763535  1
  H  H966  1  0.94475088  0.12869208  0.26103296  1
  N  N967  1  0.85766131  0.03929807  0.17616074  1
  N  N968  1  0.94636012  0.13091831  0.18225933  1
  C  C969  1  0.90281066  0.14374573  0.37439029  1
  C  C970  1  0.90702662  0.20164403  0.49576792  1
  Cl  Cl971  1  0.90863900  0.09110990  0.38504785  1
  Cl  Cl972  1  0.95576626  0.13672604  0.99248061  1
  H  H973  1  0.90198806  0.22953568  0.48627046  1
  C  C974  1  0.80816471  0.06369054  0.46187687  1
  H  H975  1  0.85104438  0.05653614  0.36576167  1
  H  H976  1  0.97473102  0.06615424  0.20483000  1
  C  C977  1  0.97491937  0.21515958  0.53818918  1
  C  C978  1  0.82841053  0.02393156  0.17547049  1
  H  H979  1  0.89119588  0.09382297  0.18430712  1
  C  C980  1  0.91211067  0.08256184  0.13635886  1
  C  C981  1  0.93424699  0.11031407  0.10671553  1
  Cl  Cl982  1  0.76690282  0.23396600  0.44848470  1
  H  H983  1  0.96311112  0.19760351  0.59531440  1
  H  H984  1  0.82205178  0.12089271  0.88294791  1
  C  C985  1  0.87867636  0.03222695  0.09544741  1
  H  H986  1  0.81946630  0.08256454  0.52299594  1
  C  C987  1  0.91158509  0.04831534  0.08274583  1
  H  H988  1  0.75834502  0.16050884  0.09431602  1
  Zn  Zn989  1  0.75880847  0.10424092  0.99025810  1
  H  H990  1  0.96443835  0.04531010  0.03212806  1
  C  C991  1  0.90363935  0.18972479  0.61511417  1
  H  H992  1  0.93497985  0.20129657  0.95038623  1
  C  C993  1  0.94027934  0.03157468  0.03772079  1
  Zn  Zn994  1  0.92279252  0.14686026  0.53078680  1
  H  H995  1  0.94689229  0.01453864  0.72461713  1
  H  H996  1  0.87724045  0.19345908  0.62990070  1
  H  H997  1  0.84798749  0.14951592  0.49771365  1
  C  C998  1  0.98792033  0.08867141  0.62163279  1
  C  C999  1  0.83853269  0.14045553  0.57638102  1
  H  H1000  1  0.77912885  0.23246025  0.09622233  1
  H  H1001  1  0.75869828  0.01666826  0.23850659  1
  H  H1002  1  0.78585029  0.16121629  0.57511175  1
  Zn  Zn1003  1  0.97573925  0.17460882  0.18773062  1
  N  N1004  1  0.86300208  0.13260483  0.64484401  1
  C  C1005  1  0.92444425  0.23421815  0.15816711  1
  H  H1006  1  0.96395798  0.04651572  0.53637816  1
  Zn  Zn1007  1  0.79019764  0.20484319  0.86221775  1
  H  H1008  1  0.77214467  0.13431531  0.22667172  1
  Cl  Cl1009  1  0.81431150  0.17190898  0.06354188  1
  C  C1010  1  0.94850459  0.22628230  0.96014059  1
  H  H1011  1  0.95554090  0.23504516  0.77533247  1
  H  H1012  1  0.81760150  0.23970271  0.37687749  1
  C  C1013  1  0.80490450  0.14535692  0.61611440  1
  C  C1014  1  0.79671820  0.21925993  0.03670073  1
  Cl  Cl1015  1  0.86351176  0.22769909  0.78470384  1
  C  C1016  1  0.96276492  0.03802530  0.71070298  1
  C  C1017  1  0.96991043  0.05754203  0.61640107  1
  H  H1018  1  0.87951821  0.12401572  0.79353451  1
  C  C1019  1  0.85614289  0.12792843  0.75053547  1
  Cl  Cl1020  1  0.79677597  0.15035982  0.38809443  1
  C  C1021  1  0.76223238  0.03361626  0.41181304  1
  N  N1022  1  0.99149154  0.14421122  0.52333617  1
  C  C1023  1  0.79683934  0.13531654  0.72647794  1
  N  N1024  1  0.75169828  0.05600467  0.96026997  1
  N  N1025  1  0.75438942  0.14665325  0.86919428  1
  C  C1026  1  0.82457587  0.12904361  0.79471715  1
  Cl  Cl1027  1  0.92978566  0.17673296  0.74088164  1
  N  N1028  1  0.88151193  0.21997201  0.31020340  1
  N  N1029  1  0.86868428  0.00956048  0.02222106  1
  H  H1030  1  0.91076815  0.01888717  0.46493436  1
  C  C1031  1  0.99404787  0.10937298  0.51528731  1
  H  H1032  1  0.76120247  0.04592079  0.03217416  1
  C  C1033  1  0.76137143  0.13585470  0.76282793  1
  C  C1034  1  0.99323266  0.20150010  0.44966931  1
  C  C1035  1  0.99633921  0.16224748  0.42929064  1
  N  N1036  1  0.97805812  0.04620454  0.80388443  1
  H  H1037  1  0.96106925  0.02448027  0.33327307  1
  C  C1038  1  0.94645120  0.00120444  0.98485414  1
  C  C1039  1  0.93399578  0.00372977  0.46975222  1
  C  C1040  1  0.95987646  0.24396293  0.86264437  1
  C  C1041  1  0.94746594  0.24413451  0.06005604  1
  C  C1042  1  0.96177918  0.00533181  0.40116399  1
  C  C1043  1  0.75105945  0.11549004  0.24078824  1
  Zn  Zn1044  1  0.85202150  0.24730054  0.01499881  1
  C  C1045  1  0.99987846  0.09906589  0.72646177  1
  C  C1046  1  0.99915744  0.07286750  0.81311927  1
  C  C1047  1  0.87448616  0.24677606  0.24298199  1
  N  N1048  1  0.81292795  0.00042858  0.10462540  1
  H  H1049  1  0.82520557  0.28269273  0.83068526  1
  C  C1050  1  0.84682909  0.27199295  0.26527850  1
  C  C1051  1  0.84995940  0.30629359  0.22101468  1
  H  H1052  1  0.96042367  0.31852288  0.50359516  1
  C  C1053  1  0.77658039  0.43651635  0.94139348  1
  H  H1054  1  0.87479796  0.31073987  0.17903941  1
  H  H1055  1  0.94025114  0.26031602  0.65361758  1
  C  C1056  1  0.81983334  0.26616112  0.33685021  1
  N  N1057  1  0.96996215  0.27705206  0.86038880  1
  N  N1058  1  0.80585914  0.32834795  0.33429441  1
  C  C1059  1  0.87153634  0.48333632  0.57943534  1
  H  H1060  1  0.91043532  0.29049569  0.45938454  1
  Cl  Cl1061  1  0.93789171  0.32292684  0.32569980  1
  Cl  Cl1062  1  0.78719607  0.44206361  0.26883592  1
  H  H1063  1  0.85125528  0.41165199  0.00733661  1
  N  N1064  1  0.86734196  0.28413927  0.54292019  1
  C  C1065  1  0.88760261  0.30524306  0.48495646  1
  H  H1066  1  0.90038480  0.35940905  0.41756425  1
  C  C1067  1  0.88315246  0.34290775  0.47141459  1
  C  C1068  1  0.83819170  0.29717536  0.57691860  1
  C  C1069  1  0.85623748  0.35951111  0.52643817  1
  Zn  Zn1070  1  0.78616078  0.37292670  0.39498106  1
  C  C1071  1  0.83619044  0.33581782  0.58735864  1
  N  N1072  1  0.80718175  0.40179806  0.51699586  1
  C  C1073  1  0.77340124  0.37265331  0.97107108  1
  H  H1074  1  0.81904060  0.45938427  0.94960816  1
  H  H1075  1  0.83146026  0.36246671  0.24011022  1
  C  C1076  1  0.79625136  0.43410790  0.55598972  1
  Cl  Cl1077  1  0.87519921  0.36016731  0.08662563  1
  C  C1078  1  0.97107125  0.34388910  0.51791960  1
  H  H1079  1  0.82077653  0.34667511  0.65628618  1
  C  C1080  1  0.84219528  0.39679064  0.53167805  1
  C  C1081  1  0.99895688  0.26311609  0.45107964  1
  N  N1082  1  0.98188709  0.34486387  0.62267689  1
  H  H1083  1  0.85359935  0.47683556  0.76878683  1
  N  N1084  1  0.86277930  0.42305585  0.53729701  1
  C  C1085  1  0.98108989  0.36862637  0.43905907  1
  N  N1086  1  0.78112411  0.31123135  0.98462785  1
  C  C1087  1  0.97729311  0.25290017  0.54384325  1
  Cl  Cl1088  1  0.89341663  0.43816556  0.85023119  1
  C  C1089  1  0.75879458  0.33630427  0.96491718  1
  H  H1090  1  0.96782666  0.29092054  0.13764698  1
  H  H1091  1  0.90388284  0.44880096  0.66276292  1
  C  C1092  1  0.77187389  0.27828716  0.95982165  1
  C  C1093  1  0.96640399  0.27536980  0.05845230  1
  N  N1094  1  0.89421716  0.25126266  0.15338768  1
  C  C1095  1  0.99817219  0.43598746  0.08619026  1
  N  N1096  1  0.95681605  0.27302869  0.60637300  1
  H  H1097  1  0.82033307  0.27707916  0.61287788  1
  C  C1098  1  0.97881411  0.28953880  0.95561615  1
  Zn  Zn1099  1  0.97247688  0.30458073  0.72411521  1
  C  C1100  1  0.82377950  0.40518341  0.99560789  1
  C  C1101  1  0.80672118  0.37282740  0.00686336  1
  H  H1102  1  0.81885894  0.34798747  0.03482152  1
  N  N1103  1  0.80838909  0.43423468  0.95792484  1
  C  C1104  1  0.79876353  0.29563667  0.36626954  1
  C  C1105  1  0.84658508  0.45219065  0.55464935  1
  C  C1106  1  0.75764277  0.40610387  0.95452307  1
  N  N1107  1  0.81427046  0.46341033  0.57683253  1
  H  H1108  1  0.98249026  0.36081183  0.35308075  1
  C  C1109  1  0.89989963  0.47792560  0.64348228  1
  C  C1110  1  0.82930903  0.33485125  0.25676859  1
  C  C1111  1  0.76325208  0.42596738  0.60758888  1
  C  C1112  1  0.95114720  0.42033625  0.97118269  1
  H  H1113  1  0.77861931  0.29606467  0.42701864  1
  H  H1114  1  0.98716863  0.31768140  0.94646004  1
  H  H1115  1  0.78328628  0.37406577  0.63137664  1
  C  C1116  1  0.99025380  0.46040451  0.89739400  1
  C  C1117  1  0.96949539  0.41636176  0.07096797  1
  Cl  Cl1118  1  0.77473778  0.31408577  0.65443683  1
  H  H1119  1  0.96118008  0.39787667  0.13791071  1
  H  H1120  1  0.92869147  0.40275441  0.94935478  1
  N  N1121  1  0.96324795  0.44072545  0.88684749  1
  Cl  Cl1122  1  0.77042075  0.48382897  0.90433216  1
  H  H1123  1  0.99715450  0.47344682  0.82217480  1
  C  C1124  1  0.76088136  0.38987981  0.63757953  1
  C  C1125  1  0.99781105  0.37835934  0.64814355  1
  C  C1126  1  0.99808223  0.40113516  0.46628816  1
  H  H1127  1  0.99185193  0.38595322  0.73501286  1
  H  H1128  1  0.90639107  0.49541540  0.90109418  1
  C  C1129  1  0.80187326  0.25008742  0.95926399  1
  C  C1130  1  0.82829486  0.25455290  0.86789431  1
  C  C1131  1  0.94987315  0.63053461  0.13281973  1
  C  C1132  1  0.86309872  0.54528412  0.10859867  1
  C  C1133  1  0.82971110  0.53776637  0.12876962  1
  C  C1134  1  0.81813225  0.59514909  0.18413341  1
  N  N1135  1  0.92812312  0.58388809  0.01340528  1
  C  C1136  1  0.87420826  0.58087159  0.11690686  1
  C  C1137  1  0.91003820  0.59453606  0.10010485  1
  N  N1138  1  0.92144432  0.62013065  0.16683005  1
  H  H1139  1  0.82310588  0.69489124  0.47953314  1
  C  C1140  1  0.84982517  0.60562153  0.14872872  1
  H  H1141  1  0.79970227  0.61500651  0.20227337  1
  C  C1142  1  0.97220887  0.64963707  0.20819445  1
  H  H1143  1  0.85649240  0.63297422  0.16734996  1
  N  N1144  1  0.80598329  0.56071422  0.15580904  1
  Zn  Zn1145  1  0.97324296  0.61692498  0.99427727  1
  H  H1146  1  0.87970065  0.52300355  0.09487356  1
  C  C1147  1  0.96490771  0.67109429  0.30167508  1
  Cl  Cl1148  1  0.83660434  0.58819944  0.49015274  1
  H  H1149  1  0.93969569  0.68215166  0.32144401  1
  H  H1150  1  0.78917225  0.60067453  0.01216970  1
  H  H1151  1  0.96205101  0.61993716  0.39134697  1
  C  C1152  1  0.97797266  0.59947505  0.41137703  1
  N  N1153  1  0.91756704  0.53764252  0.63989489  1
  N  N1154  1  0.81423491  0.74137183  0.46236690  1
  H  H1155  1  0.88748307  0.57242062  0.56570167  1
  C  C1156  1  0.89885222  0.64714164  0.69725001  1
  C  C1157  1  0.75558473  0.74882325  0.99897995  1
  Zn  Zn1158  1  0.79875504  0.50764113  0.67574388  1
  C  C1159  1  0.88946210  0.54483941  0.58129426  1
  C  C1160  1  0.86714856  0.51849258  0.54260016  1
  C  C1161  1  0.93538626  0.65016765  0.65388223  1
  C  C1162  1  0.77159842  0.70088764  0.44087661  1
  C  C1163  1  0.77342267  0.69462953  0.55682857  1
  N  N1164  1  0.82989521  0.52183661  0.78336368  1
  C  C1165  1  0.75981714  0.55792682  0.55201011  1
  H  H1166  1  0.78605016  0.55927727  0.51592185  1
  H  H1167  1  0.84989333  0.67384463  0.91167495  1
  H  H1168  1  0.81161223  0.62315527  0.64280058  1
  H  H1169  1  0.87727423  0.62540764  0.55455747  1
  H  H1170  1  0.78314657  0.74438511  0.00907519  1
  H  H1171  1  0.80480461  0.69833716  0.70334996  1
  H  H1172  1  0.94058481  0.74733949  0.57315527  1
  C  C1173  1  0.92130706  0.56242687  0.93529934  1
  C  C1174  1  0.98141624  0.63062811  0.59333553  1
  C  C1175  1  0.82900195  0.71740931  0.54276859  1
  C  C1176  1  0.88772699  0.54881188  0.90481367  1
  H  H1177  1  0.96849479  0.56991479  0.86401918  1
  N  N1178  1  0.95015378  0.68155702  0.65757136  1
  H  H1179  1  0.90662425  0.68313621  0.82962049  1
  H  H1180  1  0.85863918  0.59704943  0.90277166  1
  H  H1181  1  0.81845056  0.51193195  0.11386860  1
  C  C1182  1  0.85791864  0.56883237  0.88590109  1
  C  C1183  1  0.80197057  0.70339776  0.61339972  1
  C  C1184  1  0.87092469  0.63113714  0.64129637  1
  C  C1185  1  0.98960945  0.72304975  0.60350235  1
  N  N1186  1  0.83007812  0.64977421  0.77211339  1
  C  C1187  1  0.79503558  0.72483196  0.38716030  1
  Cl  Cl1188  1  0.79769081  0.69803550  0.90880810  1
  Zn  Zn1189  1  0.94345065  0.57398064  0.70727801  1
  N  N1190  1  0.95096619  0.61985215  0.62492185  1
  C  C1191  1  0.88958638  0.66655527  0.78689377  1
  C  C1192  1  0.83686244  0.63408513  0.67838537  1
  C  C1193  1  0.88448201  0.51177836  0.88345965  1
  C  C1194  1  0.85572245  0.66432022  0.82741527  1
  C  C1195  1  0.76398964  0.60209320  0.97420048  1
  H  H1196  1  0.84636642  0.52365685  0.48547724  1
  N  N1197  1  0.94569430  0.55796836  0.85858402  1
  H  H1198  1  0.77615162  0.64203447  0.84982491  1
  C  C1199  1  0.83143550  0.55445876  0.82796508  1
  H  H1200  1  0.80948777  0.56969945  0.79713907  1
  Cl  Cl1201  1  0.87055249  0.73784835  0.58291979  1
  H  H1202  1  0.97554535  0.56900673  0.25092530  1
  Cl  Cl1203  1  0.77292955  0.59139196  0.34909421  1
  C  C1204  1  0.85475825  0.50139992  0.82005441  1
  Zn  Zn1205  1  0.75537601  0.55009711  0.13870339  1
  N  N1206  1  0.75967351  0.53736034  0.64339028  1
  C  C1207  1  0.98007896  0.68465041  0.61694258  1
  C  C1208  1  0.98513847  0.57200232  0.33619855  1
  H  H1209  1  0.78785068  0.73921572  0.31053370  1
  C  C1210  1  0.75695668  0.62515735  0.88369189  1
  Cl  Cl1211  1  0.75578895  0.68890886  0.22148721  1
  H  H1212  1  0.99272010  0.69267930  0.44414209  1
  C  C1213  1  0.99173799  0.67918532  0.37028285  1
  C  C1214  1  0.99218925  0.59947253  0.51434453  1
  C  C1215  1  0.92175956  0.50588300  0.68113053  1
  H  H1216  1  0.94220842  0.50152835  0.74059566  1
  Cl  Cl1217  1  0.99092608  0.67861338  0.91595581  1
  N  N1218  1  0.80638603  0.81708094  0.31276267  1
  C  C1219  1  0.91049655  0.79996838  0.25646533  1
  C  C1220  1  0.77481802  0.82854699  0.28394724  1
  C  C1221  1  0.81452272  0.79800672  0.22134052  1
  C  C1222  1  0.87601827  0.80004575  0.28605516  1
  H  H1223  1  0.80301609  0.88832755  0.38722759  1
  C  C1224  1  0.96735905  0.75198728  0.58523492  1
  C  C1225  1  0.97199675  0.88798869  0.02454888  1
  C  C1226  1  0.86994896  0.92123655  0.28176511  1
  N  N1227  1  0.92140791  0.80228706  0.15333982  1
  H  H1228  1  0.87403442  0.93670159  0.35880591  1
  H  H1229  1  0.91070303  0.79172658  0.98864982  1
  H  H1230  1  0.81451922  0.92292823  0.25021467  1
  C  C1231  1  0.85143945  0.79369783  0.20348629  1
  C  C1232  1  0.83993159  0.91600432  0.22175947  1
  N  N1233  1  0.89895108  0.90737587  0.25710843  1
  N  N1234  1  0.79649633  0.78669202  0.13809087  1
  C  C1235  1  0.86539875  0.78664701  0.10164764  1
  C  C1236  1  0.89989390  0.79333880  0.07442541  1
  C  C1237  1  0.77687445  0.88668083  0.40074992  1
  H  H1238  1  0.83344364  0.82066435  0.88899145  1
  Cl  Cl1239  1  0.82144914  0.94557369  0.42819985  1
  Zn  Zn1240  1  0.96761129  0.81698820  0.10985753  1
  C  C1241  1  0.84014332  0.89703949  0.12122633  1
  H  H1242  1  0.92704690  0.88772646  0.13920328  1
  C  C1243  1  0.90057430  0.89511756  0.15497183  1
  C  C1244  1  0.87202089  0.88950342  0.08300740  1
  Cl  Cl1245  1  0.91492410  0.79521630  0.48804316  1
  N  N1246  1  0.77833278  0.90590638  0.10842667  1
  C  C1247  1  0.80739607  0.88854123  0.06769010  1
  C  C1248  1  0.97877048  0.78798205  0.58375152  1
  N  N1249  1  0.98210480  0.86787879  0.09655328  1
  C  C1250  1  0.83808176  0.99541847  0.02882954  1
  N  N1251  1  0.83196268  0.92773520  0.74169864  1
  H  H1252  1  0.98214131  0.79378805  0.90517790  1
  C  C1253  1  0.78207304  0.86153952  0.94169078  1
  H  H1254  1  0.76692820  0.93441723  0.50560130  1
  H  H1255  1  0.93173431  0.80840398  0.31601819  1
  C  C1256  1  0.76492719  0.79644778  0.12784370  1
  H  H1257  1  0.86664874  0.80425608  0.37336502  1
  H  H1258  1  0.87608904  0.87999585  0.99974446  1
  Cl  Cl1259  1  0.93728156  0.86824406  0.93981439  1
  N  N1260  1  0.80406994  0.81398705  0.62658880  1
  C  C1261  1  0.80458689  0.93350932  0.79895273  1
  N  N1262  1  0.81130313  0.86716785  0.98836082  1
  C  C1263  1  0.80420327  0.95044712  0.90191997  1
  C  C1264  1  0.81505362  0.82059773  0.82073240  1
  C  C1265  1  0.77578957  0.83203206  0.64268008  1
  Cl  Cl1266  1  0.98947112  0.98256225  0.94990018  1
  Cl  Cl1267  1  0.92994554  0.96391049  0.81804416  1
  Zn  Zn1268  1  0.81615308  0.79660711  0.48164300  1
  H  H1269  1  0.96381736  0.81157608  0.57040644  1
  H  H1270  1  0.88254663  0.93612457  0.72069276  1
  C  C1271  1  0.86120620  0.94078787  0.77071163  1
  C  C1272  1  0.76047621  0.85687752  0.35541924  1
  H  H1273  1  0.84610256  0.79053039  0.69486598  1
  Cl  Cl1274  1  0.87202733  0.77754999  0.86529590  1
  Zn  Zn1275  1  0.78047495  0.95960313  0.15371860  1
  C  C1276  1  0.83244015  0.97038417  0.93484906  1
  C  C1277  1  0.76486225  0.84468855  0.74348714  1
  H  H1278  1  0.78471426  0.92120876  0.75126809  1
  C  C1279  1  0.78527870  0.83965473  0.83572469  1
  C  C1280  1  0.82250007  0.80509081  0.71446113  1
  N  N1281  1  0.75413631  0.82013821  0.19961871  1
  H  H1282  1  0.87899657  0.98530385  0.86901174  1
  C  C1283  1  0.86016745  0.96457243  0.86418810  1
  H  H1284  1  0.95030981  0.93812649  0.63488160  1
  H  H1285  1  0.92095112  0.99031126  0.98831101  1
  C  C1286  1  0.95812720  0.95693863  0.56549548  1
  H  H1287  1  0.76200508  0.83523975  0.56389356  1
  N  N1288  1  0.93311393  0.98120006  0.55391949  1
  H  H1289  1  0.84857170  0.77348060  0.04180908  1
  C  C1290  1  0.75804597  0.90916714  0.47329866  1
  H  H1291  1  0.78318265  0.94916641  0.95574444  1
  H  H1292  1  0.98347962  0.91428965  0.03836916  1
  C  C1293  1  0.98738784  0.95681998  0.49881417  1
  N  N1294  1  0.75251469  0.87384813  0.97092166  1
  C  C1295  1  0.98873102  0.98179388  0.41499867  1
