# generated using pymatgen
data_Zn4H26C46N10O13
_symmetry_space_group_name_H-M   'P 1'
_cell_length_a   37.18385171
_cell_length_b   27.23731812
_cell_length_c   31.88283300
_cell_angle_alpha   90.00000000
_cell_angle_beta   90.00000000
_cell_angle_gamma   90.00000000
_symmetry_Int_Tables_number   1
_chemical_formula_structural   Zn4H26C46N10O13
_chemical_formula_sum   'Zn96 H624 C1104 N240 O312'
_cell_volume   32290.56334609
_cell_formula_units_Z   24
loop_
 _symmetry_equiv_pos_site_id
 _symmetry_equiv_pos_as_xyz
  1  'x, y, z'
loop_
 _atom_site_type_symbol
 _atom_site_label
 _atom_site_symmetry_multiplicity
 _atom_site_fract_x
 _atom_site_fract_y
 _atom_site_fract_z
 _atom_site_occupancy
  H  H0  1  0.11882815  0.15750773  0.12872656  1
  C  C1  1  0.18981618  0.17538687  0.13764905  1
  C  C2  1  0.12902671  0.19191444  0.11496549  1
  O  O3  1  0.05749988  0.17380811  0.09711332  1
  H  H4  1  0.18327115  0.13776275  0.14974237  1
  C  C5  1  0.22489241  0.19140985  0.14097577  1
  C  C6  1  0.12914537  0.05025306  0.14710498  1
  C  C7  1  0.06965805  0.21077391  0.08545672  1
  C  C8  1  0.16506365  0.20757445  0.11666818  1
  H  H9  1  0.02218404  0.07436429  0.03851136  1
  C  C10  1  0.10692411  0.22524427  0.09117101  1
  H  H11  1  0.15604980  0.22274736  0.22007461  1
  C  C12  1  0.01401958  0.22941311  0.05139451  1
  O  O13  1  0.13799587  0.08792429  0.16650328  1
  H  H14  1  0.08427052  0.06540296  0.20876803  1
  O  O15  1  0.14178579  0.03980377  0.11166193  1
  H  H16  1  0.00788051  0.19097757  0.04979812  1
  C  C17  1  0.08248209  0.02822955  0.19865889  1
  H  H18  1  0.12297273  0.20500249  0.00816663  1
  C  C19  1  0.01033034  0.14658565  0.22637297  1
  O  O20  1  0.02859615  0.12681769  0.20721049  1
  H  H21  1  0.15624735  0.24147964  0.00658234  1
  H  H22  1  0.24346488  0.16663232  0.15813671  1
  C  C23  1  0.10197058  0.00981986  0.16559675  1
  O  O24  1  0.04640894  0.24547025  0.06247088  1
  C  C25  1  0.17677223  0.24869350  0.22945606  1
  C  C26  1  0.23594650  0.23872295  0.12681110  1
  C  C27  1  0.17726359  0.25722792  0.10233928  1
  C  C28  1  0.11958952  0.26843196  0.07195968  1
  N  N29  1  0.23736271  0.46520740  0.14085087  1
  C  C30  1  0.15457788  0.28557435  0.07681975  1
  H  H31  1  0.16297947  0.31996432  0.06232651  1
  C  C32  1  0.21340330  0.27494954  0.10622428  1
  H  H33  1  0.22112642  0.31344306  0.09695066  1
  H  H34  1  0.17783788  0.39017867  0.11305191  1
  N  N35  1  0.14582479  0.40141552  0.03713414  1
  N  N36  1  0.15726706  0.41677981  0.10753186  1
  C  C37  1  0.13831332  0.42576180  0.07349976  1
  O  O38  1  0.19811081  0.37487027  0.16078632  1
  H  H39  1  0.10193194  0.29252060  0.05288843  1
  C  C40  1  0.21518144  0.37098457  0.19331910  1
  O  O41  1  0.23871024  0.40164368  0.20441356  1
  H  H42  1  0.17689150  0.29005688  0.17293050  1
  C  C43  1  0.18797415  0.28806977  0.20550935  1
  C  C44  1  0.20888107  0.32683870  0.22162382  1
  Zn  Zn45  1  0.18300106  0.46987987  0.14181312  1
  Zn  Zn46  1  0.23389123  0.47971881  0.20592273  1
  C  C47  1  0.11447384  0.46857680  0.06905445  1
  C  C48  1  0.10387662  0.48005226  0.02443280  1
  H  H49  1  0.04117013  0.38211937  0.02914908  1
  C  C50  1  0.02100953  0.37664588  0.00535962  1
  C  C51  1  0.13403360  0.41795258  0.00153795  1
  H  H52  1  0.23460789  0.47898339  0.01341886  1
  O  O53  1  0.12689612  0.00197258  0.38010995  1
  C  C54  1  0.11559355  0.01190200  0.48178578  1
  H  H55  1  0.03792990  0.04634537  0.26671257  1
  H  H56  1  0.16851683  0.17976503  0.29297279  1
  C  C57  1  0.05691105  0.03178537  0.45043015  1
  C  C58  1  0.18565361  0.21223392  0.30199434  1
  C  C59  1  0.20118459  0.21406831  0.34202610  1
  O  O60  1  0.16570758  0.13805463  0.36028663  1
  H  H61  1  0.17406061  0.11143114  0.37893766  1
  C  C62  1  0.19411673  0.17277014  0.37305730  1
  O  O63  1  0.20655447  0.16883001  0.40662747  1
  O  O64  1  0.03935897  0.05697502  0.42829933  1
  C  C65  1  0.14170688  0.11478261  0.46157534  1
  H  H66  1  0.14923299  0.15143546  0.45000360  1
  H  H67  1  0.08717691  0.11880114  0.43643038  1
  C  C68  1  0.10717576  0.09717552  0.45324850  1
  C  C69  1  0.09509006  0.04851014  0.46433882  1
  C  C70  1  0.16544647  0.08011847  0.48109973  1
  H  H71  1  0.17878194  0.01996233  0.41088239  1
  H  H72  1  0.21397531  0.12982500  0.48078749  1
  C  C73  1  0.03861083  0.00749121  0.25681505  1
  C  C74  1  0.20187736  0.09476929  0.49048849  1
  H  H75  1  0.24445620  0.05262136  0.44360307  1
  H  H76  1  0.19009069  0.24540459  0.46710512  1
  C  C77  1  0.19111226  0.24861559  0.27213775  1
  H  H78  1  0.23770831  0.24536637  0.38605376  1
  C  C79  1  0.15129030  0.02867641  0.48938301  1
  C  C80  1  0.24888871  0.41344092  0.36544688  1
  C  C81  1  0.03808073  0.48212680  0.43637142  1
  C  C82  1  0.01809341  0.42783559  0.48903826  1
  C  C83  1  0.21887834  0.28647282  0.28613484  1
  C  C84  1  0.15274384  0.39483749  0.39215226  1
  C  C85  1  0.24193489  0.45862276  0.29991055  1
  H  H86  1  0.07371618  0.44109431  0.47913678  1
  H  H87  1  0.14959925  0.26673153  0.40637713  1
  C  C88  1  0.22567915  0.25067924  0.35327773  1
  C  C89  1  0.00015725  0.48550522  0.42085972  1
  H  H90  1  0.22603300  0.42413050  0.49132406  1
  C  C91  1  0.04754664  0.44738499  0.46733529  1
  N  N92  1  0.14564105  0.48530366  0.35690483  1
  O  O93  1  0.21327240  0.43758368  0.29499059  1
  C  C94  1  0.18146518  0.31999450  0.44497919  1
  H  H95  1  0.13909780  0.42429181  0.37192856  1
  H  H96  1  0.22118304  0.40015738  0.35690917  1
  C  C97  1  0.14718214  0.34272810  0.38374339  1
  O  O98  1  0.10636925  0.31620345  0.32052132  1
  C  C99  1  0.17346093  0.40915490  0.42585310  1
  H  H100  1  0.17562201  0.45037882  0.43250366  1
  C  C101  1  0.15907730  0.30443233  0.41215352  1
  H  H102  1  0.04722885  0.47375503  0.29384097  1
  H  H103  1  0.23935071  0.36000720  0.26825026  1
  C  C104  1  0.22444889  0.32694880  0.26079483  1
  H  H105  1  0.19248718  0.49435862  0.39511339  1
  N  N106  1  0.07571409  0.47105590  0.30118524  1
  C  C107  1  0.21638669  0.38705587  0.48479634  1
  C  C108  1  0.12518968  0.32824456  0.34727822  1
  C  C109  1  0.19316555  0.37394963  0.45156276  1
  C  C110  1  0.19737103  0.28417032  0.47326201  1
  H  H111  1  0.07545616  0.45047770  0.32737911  1
  C  C112  1  0.23638614  0.28727662  0.32643083  1
  C  C113  1  0.15205497  0.03407446  0.59428024  1
  N  N114  1  0.07205861  0.07568875  0.60245810  1
  C  C115  1  0.06341798  0.03140110  0.58810551  1
  N  N116  1  0.04138769  0.02792631  0.55237712  1
  C  C117  1  0.05414765  0.10679939  0.57712932  1
  C  C118  1  0.03423991  0.07801552  0.54434719  1
  C  C119  1  0.04762177  0.16154482  0.57695996  1
  H  H120  1  0.12715047  0.12118134  0.64293017  1
  N  N121  1  0.13925440  0.13226178  0.67044332  1
  H  H122  1  0.12672012  0.01960728  0.58259562  1
  C  C123  1  0.22202377  0.06409557  0.62455473  1
  C  C124  1  0.19901488  0.09977372  0.60621529  1
  C  C125  1  0.16389401  0.08452608  0.58804401  1
  Zn  Zn126  1  0.06992251  0.18282763  0.66482841  1
  N  N127  1  0.05940775  0.19452358  0.60522224  1
  C  C128  1  0.20855171  0.14961843  0.60409355  1
  C  C129  1  0.15542951  0.16806489  0.56516398  1
  C  C130  1  0.14312517  0.11944423  0.56402989  1
  C  C131  1  0.18586587  0.18453980  0.58641984  1
  H  H132  1  0.13548889  0.19228185  0.55069610  1
  H  H133  1  0.16283571  0.11071402  0.66952934  1
  C  C134  1  0.13758214  0.17098941  0.70037560  1
  N  N135  1  0.10661227  0.19858165  0.70432188  1
  N  N136  1  0.01942875  0.17678248  0.55074172  1
  C  C137  1  0.04430750  0.05316764  0.70366597  1
  H  H138  1  0.04868762  0.09284399  0.69736490  1
  C  C139  1  0.16567321  0.18852015  0.72756718  1
  N  N140  1  0.01878475  0.22024316  0.68313727  1
  C  C141  1  0.01173726  0.03320811  0.68683347  1
  C  C142  1  0.07051844  0.02549102  0.72447827  1
  H  H143  1  0.04996081  0.22912581  0.61157520  1
  H  H144  1  0.11991888  0.10618057  0.54715350  1
  H  H145  1  0.23344022  0.16275555  0.62091340  1
  H  H146  1  0.21083406  0.08427740  0.72461738  1
  C  C147  1  0.20992207  0.01760386  0.63421416  1
  N  N148  1  0.19922104  0.17054492  0.73529288  1
  H  H149  1  0.09476118  0.04218273  0.73369623  1
  C  C150  1  0.19620825  0.23915436  0.58839844  1
  C  C151  1  0.01129151  0.13923406  0.52975891  1
  C  C152  1  0.21025760  0.01040920  0.52007968  1
  C  C153  1  0.22171375  0.05802186  0.51041243  1
  C  C154  1  0.17489145  0.00599133  0.61716604  1
  N  N155  1  0.01382719  0.09706384  0.51403434  1
  C  C156  1  0.10386927  0.23528695  0.73345115  1
  O  O157  1  0.15092999  0.06921246  0.73485189  1
  O  O158  1  0.08632151  0.23606161  0.50085891  1
  H  H159  1  0.24867099  0.07558930  0.63604959  1
  C  C160  1  0.00310356  0.25252204  0.65650049  1
  H  H161  1  0.00856175  0.35298005  0.56772222  1
  O  O162  1  0.22288114  0.25261592  0.60729985  1
  H  H163  1  0.07875550  0.25558595  0.73282010  1
  O  O164  1  0.17396361  0.26584875  0.56951017  1
  C  C165  1  0.02701531  0.39801176  0.52666016  1
  C  C166  1  0.01571774  0.26501492  0.70070378  1
  C  C167  1  0.12791745  0.39332642  0.63374805  1
  C  C168  1  0.16162378  0.40753567  0.62091550  1
  C  C169  1  0.10507084  0.35074431  0.63239942  1
  O  O170  1  0.08025193  0.32531526  0.64088779  1
  Zn  Zn171  1  0.15443710  0.33372125  0.59688904  1
  H  H172  1  0.05839288  0.44284629  0.61734786  1
  O  O173  1  0.18697236  0.43615199  0.61347899  1
  O  O174  1  0.05713202  0.38820882  0.53609227  1
  C  C175  1  0.04283133  0.46468967  0.64118449  1
  H  H176  1  0.21855362  0.46918042  0.54037981  1
  Zn  Zn177  1  0.12165443  0.47878460  0.68236571  1
  H  H178  1  0.10677517  0.38012033  0.72266783  1
  N  N179  1  0.01473965  0.30541607  0.72325519  1
  N  N180  1  0.13805318  0.44099431  0.73631349  1
  N  N181  1  0.00596224  0.46105023  0.63876814  1
  N  N182  1  0.06618995  0.48542426  0.66794042  1
  N  N183  1  0.24399128  0.48331307  0.52769006  1
  C  C184  1  0.18312852  0.49614840  0.61911395  1
  C  C185  1  0.12722909  0.39435722  0.74232932  1
  H  H186  1  0.23934660  0.26987789  0.51751482  1
  O  O187  1  0.24289977  0.36932228  0.73285074  1
  H  H188  1  0.24460820  0.45450413  0.73161315  1
  C  C189  1  0.23619063  0.34826321  0.50379796  1
  C  C190  1  0.08907072  0.25002081  0.53172392  1
  C  C191  1  0.22428433  0.29838745  0.50163198  1
  C  C192  1  0.22348674  0.06571136  0.75111212  1
  C  C193  1  0.24922345  0.02579411  0.82869673  1
  H  H194  1  0.19077254  0.01760121  0.83776334  1
  C  C195  1  0.15671117  0.22632688  0.75978846  1
  C  C196  1  0.21114750  0.19507919  0.76863183  1
  H  H197  1  0.02322677  0.19792925  0.77521912  1
  O  O198  1  0.07517952  0.15983076  0.80931732  1
  C  C199  1  0.15967959  0.05216361  0.76743283  1
  C  C200  1  0.19975293  0.04672915  0.77990679  1
  C  C201  1  0.23495134  0.18529972  0.96039287  1
  O  O202  1  0.13496953  0.03348317  0.79186531  1
  C  C203  1  0.19453121  0.14158309  0.91174452  1
  Zn  Zn204  1  0.11028110  0.06332932  0.84499535  1
  O  O205  1  0.15628920  0.09479247  0.87188179  1
  C  C206  1  0.16153181  0.11331354  0.90740347  1
  O  O207  1  0.13711342  0.11443773  0.93465616  1
  H  H208  1  0.21252202  0.12265032  0.84857095  1
  C  C209  1  0.22059805  0.13907268  0.87907181  1
  C  C210  1  0.05705212  0.14767781  0.83813778  1
  C  C211  1  0.20220750  0.16469411  0.95124277  1
  Zn  Zn212  1  0.08812731  0.15590673  0.93123587  1
  C  C213  1  0.01633910  0.16272883  0.83534969  1
  O  O214  1  0.06878143  0.12156155  0.86846571  1
  O  O215  1  0.01854162  0.18484861  0.95322690  1
  H  H216  1  0.00532785  0.13126092  0.89714311  1
  H  H217  1  0.17472306  0.03087404  0.96087547  1
  H  H218  1  0.09886479  0.22492861  0.85503895  1
  H  H219  1  0.18098070  0.16347588  0.97562514  1
  H  H220  1  0.23964955  0.19308474  0.77843465  1
  C  C221  1  0.02147783  0.02319194  0.89520888  1
  N  N222  1  0.11996598  0.21986820  0.91559180  1
  C  C223  1  0.21250900  0.02623472  0.81634045  1
  N  N224  1  0.18773507  0.22834144  0.78444928  1
  H  H225  1  0.02865239  0.02269831  0.83114081  1
  C  C226  1  0.11859724  0.24091447  0.87779596  1
  C  C227  1  0.00424771  0.18876717  0.80057267  1
  N  N228  1  0.14081847  0.22167274  0.98732758  1
  O  O229  1  0.23966317  0.03645109  0.97747902  1
  H  H230  1  0.24115988  0.20258966  0.99039574  1
  C  C231  1  0.02262422  0.14981872  0.97585567  1
  C  C232  1  0.00842525  0.03006603  0.85470668  1
  H  H233  1  0.00974086  0.02364181  0.96130592  1
  C  C234  1  0.13937420  0.24161085  0.94673940  1
  H  H235  1  0.06801536  0.24651965  0.80302981  1
  O  O236  1  0.05391367  0.12865454  0.97648492  1
  C  C237  1  0.24361238  0.00608331  0.95255709  1
  O  O238  1  0.06776836  0.00263126  0.93887943  1
  O  O239  1  0.08163516  0.00350324  0.87149919  1
  C  C240  1  0.06031656  0.00619447  0.90178180  1
  N  N241  1  0.11606717  0.45841638  0.98897927  1
  H  H242  1  0.24863967  0.26938560  0.93075332  1
  H  H243  1  0.02928445  0.48276687  0.93467532  1
  C  C244  1  0.24928702  0.39375178  0.76273822  1
  H  H245  1  0.24654465  0.29577552  0.77744620  1
  H  H246  1  0.00148756  0.40073279  0.76101893  1
  Zn  Zn247  1  0.10192738  0.49026057  0.93131392  1
  O  O248  1  0.16325664  0.46187284  0.90872742  1
  H  H249  1  0.13269581  0.39945305  0.88176859  1
  H  H250  1  0.15551057  0.46415486  0.93964318  1
  N  N251  1  0.02259223  0.37293500  0.81768517  1
  O  O252  1  0.06293734  0.30867003  0.91521248  1
  Zn  Zn253  1  0.10889440  0.31157429  0.80250470  1
  C  C254  1  0.00208343  0.34189300  0.93690579  1
  C  C255  1  0.01342279  0.45082652  0.88032558  1
  N  N256  1  0.12461852  0.25194879  0.76434236  1
  N  N257  1  0.13448498  0.37038222  0.77661534  1
  C  C258  1  0.02887657  0.35273253  0.96575399  1
  H  H259  1  0.00992478  0.32553598  0.90482418  1
  Zn  Zn260  1  0.17379608  0.38928744  0.81852570  1
  C  C261  1  0.06498647  0.33626497  0.95399735  1
  C  C262  1  0.15836258  0.46818412  0.76333345  1
  Zn  Zn263  1  0.02992792  0.30926025  0.78222835  1
  C  C264  1  0.15751391  0.28396121  0.93021190  1
  N  N265  1  0.08330681  0.43899362  0.88931496  1
  N  N266  1  0.17736076  0.31983062  0.94816292  1
  C  C267  1  0.05069374  0.39129463  0.84065239  1
  N  N268  1  0.13061587  0.28046609  0.85656996  1
  C  C269  1  0.10289965  0.40353246  0.87267365  1
  H  H270  1  0.20276926  0.38673998  0.92544079  1
  C  C271  1  0.15295434  0.30292919  0.88430407  1
  N  N272  1  0.08643598  0.37382365  0.84187976  1
  H  H273  1  0.15140177  0.49253678  0.89583560  1
  H  H274  1  0.08667142  0.29039625  0.91654637  1
  C  C275  1  0.18631558  0.35299727  0.91816612  1
  C  C276  1  0.17872957  0.45982392  0.80081991  1
  H  H277  1  0.06175268  0.30083601  0.84584629  1
  H  H278  1  0.18665049  0.32493356  0.97748240  1
  N  N279  1  0.00937326  0.48627591  0.91227307  1
  N  N280  1  0.06465751  0.27820428  0.82034457  1
  N  N281  1  0.17301302  0.34667255  0.87920760  1
  C  C282  1  0.04891864  0.43033035  0.87467153  1
  C  C283  1  0.20187917  0.49707149  0.81148707  1
  O  O284  1  0.09266414  0.33910429  0.97233134  1
  H  H285  1  0.14050338  0.39831450  0.97158240  1
  C  C286  1  0.24970536  0.31890369  0.80688354  1
  C  C287  1  0.18957315  0.56832113  0.17601083  1
  C  C288  1  0.18373447  0.62027206  0.17298465  1
  C  C289  1  0.16580148  0.64229786  0.13364003  1
  C  C290  1  0.15473254  0.57002941  0.11211075  1
  N  N291  1  0.14680557  0.61582807  0.10652577  1
  H  H292  1  0.13812742  0.54645271  0.09298635  1
  Zn  Zn293  1  0.10528771  0.65021038  0.07068176  1
  H  H294  1  0.07797209  0.56419412  0.13843439  1
  N  N295  1  0.17455050  0.54485475  0.14139451  1
  H  H296  1  0.06935945  0.56724456  0.07667351  1
  C  C297  1  0.08033353  0.53362310  0.06572189  1
  C  C298  1  0.06606326  0.60020669  0.14665675  1
  N  N299  1  0.20852618  0.54578377  0.20750500  1
  N  N300  1  0.08389393  0.52729912  0.02290859  1
  N  N301  1  0.19191997  0.65641570  0.20179469  1
  N  N302  1  0.07098593  0.64151875  0.12238793  1
  N  N303  1  0.05377370  0.60582358  0.18666850  1
  N  N304  1  0.16867762  0.69356637  0.14152269  1
  C  C305  1  0.04802492  0.65430219  0.18964188  1
  C  C306  1  0.18407846  0.69701956  0.18153436  1
  C  C307  1  0.05688270  0.67828688  0.14638689  1
  H  H308  1  0.22857591  0.56655038  0.10953215  1
  C  C309  1  0.03538183  0.68414374  0.22398442  1
  Zn  Zn310  1  0.05809478  0.54743549  0.23302162  1
  H  H311  1  0.22179342  0.56315026  0.23305172  1
  N  N312  1  0.10610246  0.72358164  0.05927764  1
  H  H313  1  0.18127087  0.73244040  0.19681081  1
  N  N314  1  0.05629646  0.72975851  0.14502739  1
  H  H315  1  0.01997310  0.64828798  0.06272307  1
  N  N316  1  0.03226694  0.73397765  0.21565761  1
  C  C317  1  0.10171200  0.73499901  0.01847771  1
  C  C318  1  0.04469254  0.74352710  0.18085469  1
  N  N319  1  0.09679937  0.50068900  0.09197454  1
  H  H320  1  0.24711374  0.64715974  0.19870952  1
  C  C321  1  0.00170201  0.67354676  0.04420898  1
  H  H322  1  0.24405675  0.60005773  0.07192503  1
  N  N323  1  0.24863437  0.56722264  0.08836743  1
  N  N324  1  0.10092484  0.64725408  0.00677068  1
  H  H325  1  0.02255137  0.50110359  0.05227094  1
  C  C326  1  0.00601989  0.50752512  0.11606907  1
  H  H327  1  0.03289892  0.51010065  0.12993865  1
  O  O328  1  0.02492239  0.50519109  0.19840316  1
  O  O329  1  0.03918887  0.59866422  0.00158338  1
  H  H330  1  0.11266353  0.75003201  0.19357400  1
  Zn  Zn331  1  0.14618665  0.75320483  0.09891707  1
  O  O332  1  0.23291005  0.75445160  0.22688567  1
  C  C333  1  0.23921423  0.84144163  0.22650235  1
  Zn  Zn334  1  0.07217618  0.77181590  0.09964427  1
  C  C335  1  0.12855566  0.78470724  0.19349659  1
  N  N336  1  0.11852590  0.80373468  0.22820599  1
  H  H337  1  0.08270361  0.88695488  0.17231221  1
  N  N338  1  0.14849684  0.80001377  0.15871962  1
  H  H339  1  0.19593519  0.84715554  0.10399603  1
  N  N340  1  0.18878304  0.86253385  0.13199153  1
  C  C341  1  0.16575761  0.84370362  0.16118837  1
  C  C342  1  0.15772887  0.87159742  0.19903409  1
  N  N343  1  0.15883726  0.81109691  0.05725266  1
  N  N344  1  0.08067985  0.84177858  0.09742729  1
  C  C345  1  0.13971711  0.85190307  0.05811073  1
  H  H346  1  0.06261235  0.84926763  0.12085559  1
  C  C347  1  0.10255423  0.87035179  0.07184877  1
  C  C348  1  0.18808118  0.82188016  0.03460091  1
  N  N349  1  0.09509400  0.91667041  0.06151094  1
  C  C350  1  0.12021672  0.93438610  0.04188195  1
  C  C351  1  0.13248715  0.84682788  0.23007055  1
  N  N352  1  0.16739034  0.91772354  0.21197016  1
  H  H353  1  0.19431801  0.89859570  0.13856822  1
  C  C354  1  0.08153879  0.92595085  0.17886399  1
  Zn  Zn355  1  0.02683333  0.92374751  0.09121751  1
  H  H356  1  0.20996133  0.79401820  0.03118635  1
  H  H357  1  0.21886202  0.84625596  0.20206241  1
  C  C358  1  0.15893951  0.89170720  0.03321845  1
  H  H359  1  0.16949708  0.95235168  0.08441326  1
  O  O360  1  0.18718832  0.95589735  0.10783318  1
  N  N361  1  0.19020819  0.86990090  0.01920132  1
  H  H362  1  0.18132552  0.98550867  0.12431498  1
  O  O363  1  0.03630751  0.86004987  0.22225400  1
  N  N364  1  0.14943099  0.93775324  0.02259333  1
  C  C365  1  0.05925840  0.94101723  0.21113500  1
  H  H366  1  0.11831780  0.94641559  0.12834049  1
  C  C367  1  0.10115183  0.95961427  0.15547006  1
  C  C368  1  0.03682857  0.90319000  0.23337838  1
  C  C369  1  0.06038496  0.99393027  0.22182352  1
  H  H370  1  0.24667860  0.91781553  0.23249137  1
  C  C371  1  0.24698642  0.79115154  0.24056261  1
  N  N372  1  0.09405371  0.78209396  0.00879686  1
  N  N373  1  0.02735850  0.66684283  0.26409578  1
  N  N374  1  0.00201395  0.73288559  0.39518615  1
  C  C375  1  0.24307167  0.61174262  0.43776802  1
  C  C376  1  0.10200271  0.50870895  0.29616361  1
  C  C377  1  0.01567249  0.58609164  0.45326274  1
  C  C378  1  0.01088259  0.55487830  0.32044818  1
  H  H379  1  0.02463169  0.62874326  0.27035597  1
  N  N380  1  0.10178683  0.54722136  0.26764500  1
  Zn  Zn381  1  0.19575241  0.64138498  0.26686535  1
  C  C382  1  0.12686790  0.57903190  0.26626949  1
  H  H383  1  0.01740418  0.68697342  0.28843647  1
  C  C384  1  0.02041537  0.52970290  0.36282541  1
  H  H385  1  0.04880322  0.68796038  0.40986680  1
  O  O386  1  0.03507904  0.57825070  0.30085654  1
  N  N387  1  0.15493016  0.58962986  0.28479236  1
  Zn  Zn388  1  0.22893398  0.72598624  0.45538625  1
  C  C389  1  0.15808643  0.55247096  0.31617763  1
  N  N390  1  0.18667495  0.54751303  0.34440127  1
  N  N391  1  0.21828957  0.66381539  0.36650502  1
  C  C392  1  0.11849864  0.64674350  0.39517846  1
  C  C393  1  0.11110087  0.69353599  0.41637246  1
  C  C394  1  0.19856418  0.70374731  0.34212904  1
  N  N395  1  0.18514973  0.69709874  0.30501454  1
  Zn  Zn396  1  0.22562963  0.59677841  0.34594069  1
  H  H397  1  0.11856505  0.61335222  0.33144460  1
  C  C398  1  0.11129621  0.64668956  0.35061024  1
  C  C399  1  0.09649186  0.68710677  0.33075047  1
  C  C400  1  0.11658953  0.69351317  0.46232503  1
  C  C401  1  0.12777651  0.60109561  0.41521489  1
  H  H402  1  0.13094132  0.56973268  0.39537678  1
  H  H403  1  0.20647952  0.65011755  0.39503568  1
  N  N404  1  0.23149128  0.64798385  0.46344900  1
  C  C405  1  0.13169744  0.60487272  0.45782260  1
  H  H406  1  0.08974614  0.69061831  0.29775580  1
  C  C407  1  0.02714725  0.71500105  0.42144724  1
  N  N408  1  0.02310892  0.73043307  0.46250957  1
  C  C409  1  0.09121271  0.73025390  0.35470258  1
  H  H410  1  0.07605757  0.54487913  0.35456687  1
  C  C411  1  0.10123763  0.73729576  0.39586932  1
  H  H412  1  0.10781570  0.72414979  0.48281992  1
  H  H413  1  0.02897069  0.57648395  0.42395780  1
  C  C414  1  0.13253623  0.50854335  0.32261427  1
  C  C415  1  0.14387799  0.56043059  0.48308896  1
  C  C416  1  0.12930829  0.65061932  0.47904070  1
  H  H417  1  0.24528487  0.67633514  0.37564544  1
  C  C418  1  0.17687431  0.50776018  0.36728780  1
  H  H419  1  0.15286822  0.73684132  0.26462704  1
  C  C420  1  0.16530496  0.73756986  0.29586844  1
  C  C421  1  0.24347256  0.55560277  0.43673360  1
  N  N422  1  0.23999579  0.51514711  0.45663537  1
  C  C423  1  0.03275416  0.57285463  0.49056159  1
  H  H424  1  0.05948678  0.55373390  0.48807035  1
  C  C425  1  0.05669083  0.52906640  0.37549324  1
  C  C426  1  0.23428390  0.52317881  0.49585246  1
  C  C427  1  0.18955918  0.74280693  0.37161640  1
  H  H428  1  0.09262633  0.50659588  0.42703767  1
  O  O429  1  0.14160881  0.51935345  0.47256374  1
  C  C430  1  0.06601448  0.50738074  0.41399594  1
  C  C431  1  0.22878091  0.62325979  0.49993302  1
  C  C432  1  0.01703916  0.97213835  0.27510066  1
  C  C433  1  0.08490000  0.88413064  0.45853974  1
  C  C434  1  0.15285620  0.92323047  0.25139264  1
  N  N435  1  0.16323933  0.82145211  0.38302113  1
  C  C436  1  0.19817279  0.92512318  0.34286851  1
  N  N437  1  0.19802164  0.75878474  0.41113601  1
  H  H438  1  0.02429557  0.87397644  0.46795723  1
  O  O439  1  0.01152494  0.87577068  0.49501514  1
  H  H440  1  0.19654139  0.91002082  0.43413103  1
  H  H441  1  0.15593884  0.95698353  0.27079105  1
  H  H442  1  0.18409148  0.82370759  0.44638469  1
  C  C443  1  0.16897219  0.78503199  0.35329284  1
  H  H444  1  0.09984963  0.77120785  0.41302741  1
  C  C445  1  0.07657382  0.77391542  0.33115517  1
  C  C446  1  0.19561051  0.99064766  0.39558494  1
  C  C447  1  0.21511878  0.88814520  0.49430977  1
  N  N448  1  0.13328110  0.88225114  0.26459355  1
  O  O449  1  0.07726832  0.81595161  0.34974894  1
  C  C450  1  0.18321404  0.80311125  0.41634455  1
  O  O451  1  0.04448971  0.99186731  0.46596581  1
  H  H452  1  0.10590319  0.97246495  0.48386471  1
  O  O453  1  0.05915503  0.88192162  0.43459214  1
  C  C454  1  0.13976432  0.96735100  0.36046413  1
  N  N455  1  0.15551655  0.78011983  0.31422738  1
  C  C456  1  0.12198674  0.89109496  0.44753045  1
  O  O457  1  0.12127349  0.94105906  0.33606639  1
  C  C458  1  0.01502071  0.92136648  0.26673764  1
  C  C459  1  0.23508666  0.92264510  0.34767826  1
  C  C460  1  0.18848570  0.89838441  0.46500774  1
  O  O461  1  0.06799925  0.77092539  0.29381578  1
  C  C462  1  0.23386855  0.98911673  0.40037171  1
  C  C463  1  0.15089258  0.88847948  0.47453286  1
  H  H464  1  0.12801748  0.89694295  0.41410951  1
  Zn  Zn465  1  0.11503199  0.86651449  0.32522018  1
  H  H466  1  0.18302616  0.90464154  0.31897772  1
  C  C467  1  0.17967529  0.95941739  0.36730274  1
  Zn  Zn468  1  0.01577616  0.79129078  0.25882451  1
  C  C469  1  0.16032483  0.60806463  0.67177210  1
  N  N470  1  0.17860252  0.65193715  0.67293869  1
  N  N471  1  0.12615687  0.60996814  0.69123833  1
  C  C472  1  0.20704653  0.56575258  0.62813100  1
  C  C473  1  0.17085082  0.56408149  0.64951986  1
  H  H474  1  0.12031931  0.63943657  0.71024852  1
  N  N475  1  0.15728310  0.51711909  0.64229170  1
  N  N476  1  0.21102103  0.52140284  0.60809666  1
  C  C477  1  0.20841499  0.64531700  0.65348107  1
  Zn  Zn478  1  0.08617269  0.63782663  0.62700640  1
  N  N479  1  0.22719407  0.60989396  0.63064277  1
  N  N480  1  0.22763493  0.60618127  0.53989560  1
  C  C481  1  0.05589417  0.70402441  0.62084836  1
  C  C482  1  0.09275446  0.71078457  0.64915517  1
  H  H483  1  0.22304123  0.68277206  0.65432618  1
  O  O484  1  0.09594389  0.71741397  0.68554046  1
  Zn  Zn485  1  0.15937107  0.72144371  0.69721839  1
  C  C486  1  0.06827616  0.68915413  0.57334637  1
  O  O487  1  0.09245556  0.69810542  0.55108154  1
  O  O488  1  0.19163410  0.71773599  0.55010476  1
  N  N489  1  0.05876174  0.53740741  0.73201023  1
  O  O490  1  0.05807750  0.53888041  0.56713702  1
  C  C491  1  0.02980270  0.55938314  0.56853254  1
  O  O492  1  0.02680470  0.69934420  0.63785383  1
  C  C493  1  0.23006734  0.56952955  0.51487445  1
  H  H494  1  0.12875620  0.71227586  0.60165464  1
  O  O495  1  0.13329460  0.72831489  0.62832173  1
  O  O496  1  0.15700679  0.57576758  0.52540677  1
  H  H497  1  0.16149427  0.54202242  0.53424613  1
  Zn  Zn498  1  0.02418174  0.73484917  0.55930727  1
  C  C499  1  0.21757282  0.74246337  0.54967906  1
  C  C500  1  0.00606353  0.51105124  0.70121325  1
  Zn  Zn501  1  0.11368014  0.56606832  0.74218618  1
  O  O502  1  0.00993443  0.55988836  0.60630040  1
  H  H503  1  0.02252566  0.53494592  0.62292192  1
  C  C504  1  0.01475420  0.58265874  0.52867667  1
  H  H505  1  0.24121612  0.53148652  0.71127092  1
  H  H506  1  0.24657868  0.69632340  0.51471821  1
  O  O507  1  0.24729667  0.73456913  0.51391203  1
  H  H508  1  0.13352707  0.65015451  0.51249267  1
  C  C509  1  0.04696607  0.50893535  0.69606728  1
  O  O510  1  0.22521252  0.50546800  0.70235127  1
  H  H511  1  0.21191395  0.51676349  0.67948195  1
  H  H512  1  0.17615442  0.77241726  0.61400868  1
  C  C513  1  0.22883359  0.77930778  0.58190245  1
  O  O514  1  0.16779458  0.79704903  0.69432320  1
  C  C515  1  0.20384077  0.78705209  0.61452893  1
  C  C516  1  0.20818108  0.85624050  0.71888794  1
  C  C517  1  0.19549825  0.82211058  0.68820048  1
  C  C518  1  0.21676922  0.81590362  0.64957790  1
  O  O519  1  0.03784147  0.86434369  0.55793704  1
  H  H520  1  0.09894784  0.86520961  0.56671859  1
  C  C521  1  0.17107225  0.87537838  0.55035466  1
  H  H522  1  0.16431706  0.86359493  0.58268111  1
  C  C523  1  0.10664873  0.87504550  0.53488745  1
  C  C524  1  0.14276323  0.87956088  0.52029577  1
  C  C525  1  0.20510467  0.87839798  0.53648441  1
  O  O526  1  0.12516371  0.94551870  0.61748153  1
  O  O527  1  0.17334478  0.92472611  0.65079078  1
  C  C528  1  0.15712485  0.95356702  0.62819527  1
  C  C529  1  0.03039224  0.95587035  0.71500043  1
  C  C530  1  0.02296141  0.90383618  0.71821611  1
  C  C531  1  0.06380000  0.97536935  0.73476059  1
  H  H532  1  0.22817047  0.87336956  0.55951102  1
  C  C533  1  0.04342170  0.86963215  0.52144858  1
  H  H534  1  0.19421755  0.86163561  0.74727014  1
  C  C535  1  0.24070205  0.87912242  0.71123013  1
  C  C536  1  0.00537279  0.98419532  0.69258145  1
  H  H537  1  0.22461388  0.99119703  0.65351393  1
  H  H538  1  0.16312742  0.96256846  0.51720796  1
  Zn  Zn539  1  0.01117178  0.97302366  0.51646892  1
  C  C540  1  0.07991514  0.87735960  0.50499803  1
  C  C541  1  0.04404814  0.87084598  0.74169862  1
  H  H542  1  0.07462370  0.99916343  0.60483622  1
  H  H543  1  0.23031265  0.98329366  0.53236372  1
  C  C544  1  0.17558952  0.99767539  0.50938451  1
  N  N545  1  0.16195498  0.52221252  0.75351032  1
  O  O546  1  0.16839102  0.69994071  0.76112448  1
  C  C547  1  0.02797590  0.55257691  0.75230391  1
  O  O548  1  0.01852136  0.61831327  0.94094683  1
  C  C549  1  0.00668723  0.64061907  0.81224262  1
  O  O550  1  0.11087614  0.52183056  0.84507104  1
  H  H551  1  0.04127794  0.69431834  0.78067733  1
  H  H552  1  0.04209778  0.54327539  0.86988451  1
  C  C553  1  0.04210953  0.57370371  0.84687568  1
  H  H554  1  0.02730461  0.57209361  0.78319931  1
  O  O555  1  0.14272164  0.59632668  0.82938619  1
  H  H556  1  0.15817153  0.58028079  0.84918327  1
  C  C557  1  0.18849089  0.53612083  0.78058384  1
  H  H558  1  0.21958012  0.65305961  0.88902357  1
  C  C559  1  0.20802172  0.62163011  0.90757649  1
  H  H560  1  0.10918617  0.56820819  0.90536617  1
  C  C561  1  0.16002791  0.57440590  0.92896779  1
  N  N562  1  0.12455387  0.55775910  0.92995172  1
  N  N563  1  0.17111699  0.61309666  0.90373235  1
  Zn  Zn564  1  0.13449225  0.65695662  0.87023413  1
  N  N565  1  0.09785721  0.70022983  0.90354687  1
  N  N566  1  0.21265446  0.54157616  0.80824463  1
  C  C567  1  0.09796777  0.70011923  0.94434689  1
  C  C568  1  0.10751304  0.56298821  0.83566300  1
  N  N569  1  0.23672612  0.60721034  0.92784141  1
  C  C570  1  0.07216084  0.63751072  0.80693959  1
  C  C571  1  0.07435557  0.59312685  0.82832684  1
  H  H572  1  0.09728689  0.65705399  0.79909168  1
  C  C573  1  0.03986167  0.66005155  0.79820470  1
  C  C574  1  0.22464112  0.57096864  0.94976856  1
  C  C575  1  0.18804678  0.54914599  0.95215435  1
  Zn  Zn576  1  0.08982390  0.58354485  0.98012666  1
  C  C577  1  0.01849841  0.62490184  0.97804132  1
  C  C578  1  0.10015489  0.69041172  0.98941748  1
  O  O579  1  0.13381844  0.70095163  0.81470131  1
  C  C580  1  0.16334436  0.71330003  0.79757198  1
  C  C581  1  0.00833922  0.59629209  0.84082784  1
  N  N582  1  0.19034030  0.51006524  0.98033838  1
  N  N583  1  0.24880345  0.54066996  0.97442003  1
  H  H584  1  0.04073236  0.73100576  0.83984930  1
  H  H585  1  0.15479784  0.73497629  0.88110038  1
  C  C586  1  0.22476723  0.50655379  0.99153089  1
  C  C587  1  0.10100051  0.74648109  0.92002343  1
  C  C588  1  0.18112700  0.74909392  0.86751780  1
  C  C589  1  0.18931065  0.74160053  0.82417456  1
  C  C590  1  0.17653383  0.99746357  0.94380288  1
  C  C591  1  0.15388819  0.86048127  0.82800492  1
  C  C592  1  0.00910940  0.83186689  0.89148947  1
  C  C593  1  0.14815781  0.93079090  0.91125795  1
  C  C594  1  0.24476850  0.78663495  0.83271817  1
  H  H595  1  0.11713466  0.99032867  0.93873304  1
  H  H596  1  0.03390742  0.83286586  0.75094606  1
  H  H597  1  0.15854857  0.82514659  0.81371256  1
  H  H598  1  0.04501080  0.76727837  0.90779413  1
  C  C599  1  0.08482482  0.94329684  0.76015100  1
  C  C600  1  0.09789075  0.79984106  0.96909097  1
  H  H601  1  0.20711454  0.85974711  0.86121401  1
  C  C602  1  0.20411480  0.77355154  0.89406544  1
  C  C603  1  0.07440560  0.89341224  0.76210837  1
  C  C604  1  0.17951736  0.90882377  0.89932118  1
  C  C605  1  0.02422035  0.76640389  0.84273651  1
  H  H606  1  0.19577547  0.78097812  0.92752796  1
  C  C607  1  0.00298216  0.78878711  0.80867379  1
  H  H608  1  0.10715350  0.95569823  0.77994612  1
  N  N609  1  0.10350273  0.79524182  0.92865316  1
  O  O610  1  0.13175334  0.88859498  0.80462383  1
  H  H611  1  0.01878611  0.83204329  0.96175826  1
  C  C612  1  0.22013641  0.76008748  0.80674104  1
  Zn  Zn613  1  0.12934605  0.86669006  0.88812794  1
  C  C614  1  0.21560792  0.93389888  0.90964933  1
  C  C615  1  0.09791733  0.86131240  0.78615178  1
  O  O616  1  0.09237438  0.81939759  0.79246103  1
  C  C617  1  0.21106097  0.97817246  0.93462224  1
  H  H618  1  0.22620058  0.75321076  0.77220387  1
  C  C619  1  0.14494317  0.97376065  0.93311674  1
  C  C620  1  0.02690441  0.78621911  0.88251492  1
  C  C621  1  0.23734533  0.79211227  0.87849061  1
  Zn  Zn622  1  0.22865358  0.92811499  0.97798255  1
  H  H623  1  0.09694755  0.84021271  0.97330550  1
  C  C624  1  0.18136220  0.87502275  0.86340116  1
  C  C625  1  0.00927098  0.85005125  0.93306953  1
  H  H626  1  0.23391638  0.93542858  0.88117240  1
  O  O627  1  0.22602375  0.91655218  0.77850563  1
  H  H628  1  0.22720718  0.95045791  0.78549409  1
  H  H629  1  0.36707285  0.04242176  0.01025918  1
  O  O630  1  0.38215241  0.06115499  0.07644025  1
  H  H631  1  0.38427970  0.06002121  0.15222932  1
  C  C632  1  0.40112211  0.02576774  0.07545928  1
  C  C633  1  0.40445757  0.03029009  0.15263662  1
  H  H634  1  0.41110115  0.04071812  0.21900505  1
  C  C635  1  0.41954462  0.01767726  0.19009287  1
  O  O636  1  0.30094351  0.22691722  0.14695841  1
  C  C637  1  0.41736116  0.00698058  0.11518911  1
  O  O638  1  0.40785626  0.00058983  0.04088912  1
  C  C639  1  0.27470242  0.24717098  0.13583511  1
  H  H640  1  0.48799074  0.09500544  0.10472758  1
  H  H641  1  0.27238930  0.37627869  0.02412816  1
  O  O642  1  0.36756855  0.36923054  0.22716039  1
  C  C643  1  0.38454359  0.39679314  0.23950449  1
  H  H644  1  0.45478498  0.32209983  0.20446649  1
  O  O645  1  0.44583132  0.29546114  0.08906048  1
  C  C646  1  0.46357085  0.34124652  0.08893189  1
  N  N647  1  0.31814249  0.43134009  0.04558031  1
  C  C648  1  0.29954064  0.41680717  0.07701640  1
  H  H649  1  0.41443336  0.38424209  0.09257147  1
  C  C650  1  0.44376577  0.38631132  0.09074790  1
  H  H651  1  0.44360459  0.46479514  0.09941273  1
  C  C652  1  0.46085637  0.43188377  0.09426155  1
  C  C653  1  0.30370822  0.47188482  0.05483300  1
  Zn  Zn654  1  0.28038721  0.31676911  0.11575437  1
  N  N655  1  0.28445190  0.39660642  0.10946189  1
  O  O656  1  0.38391036  0.33589921  0.04625942  1
  H  H657  1  0.42138967  0.30386483  0.07845486  1
  C  C658  1  0.26120206  0.43288748  0.12319378  1
  C  C659  1  0.38270825  0.34965444  0.01077190  1
  O  O660  1  0.47556002  0.34255520  0.19938690  1
  C  C661  1  0.25724870  0.48521718  0.11084011  1
  O  O662  1  0.48899070  0.28530971  0.24772907  1
  O  O663  1  0.25645579  0.27115636  0.00455630  1
  O  O664  1  0.26621355  0.34415144  0.03849640  1
  C  C665  1  0.25937560  0.31396765  0.00018753  1
  C  C666  1  0.49920879  0.43583752  0.09714841  1
  C  C667  1  0.49991442  0.31993246  0.22867035  1
  H  H668  1  0.48660222  0.43265553  0.02538041  1
  H  H669  1  0.25243949  0.11664620  0.38080436  1
  C  C670  1  0.25154888  0.03758140  0.41186804  1
  C  C671  1  0.36329559  0.04552204  0.27017525  1
  O  O672  1  0.27848642  0.07091275  0.34675197  1
  C  C673  1  0.26242148  0.07486176  0.37936904  1
  O  O674  1  0.37824113  0.04810735  0.29852474  1
  O  O675  1  0.25345186  0.48942293  0.27220141  1
  H  H676  1  0.30906859  0.49900007  0.32513816  1
  H  H677  1  0.46581715  0.47064014  0.47450065  1
  H  H678  1  0.31027905  0.49956459  0.26321169  1
  C  C679  1  0.37317037  0.41540790  0.49708018  1
  O  O680  1  0.29249481  0.26472691  0.44058921  1
  C  C681  1  0.43707142  0.33816905  0.36493445  1
  C  C682  1  0.31838693  0.40746551  0.44896143  1
  H  H683  1  0.25965282  0.31084400  0.33156843  1
  C  C684  1  0.44832899  0.46578795  0.40879569  1
  C  C685  1  0.26542254  0.44799003  0.33792171  1
  C  C686  1  0.35152923  0.47122066  0.39190102  1
  C  C687  1  0.27918758  0.28832842  0.41932349  1
  C  C688  1  0.42395808  0.47619479  0.33551220  1
  O  O689  1  0.45290072  0.31622761  0.39380414  1
  H  H690  1  0.45174964  0.38640633  0.43050995  1
  H  H691  1  0.41047519  0.40672083  0.30609914  1
  C  C692  1  0.29850150  0.42048029  0.41252250  1
  C  C693  1  0.36792510  0.45920936  0.42952464  1
  C  C694  1  0.44526951  0.41467281  0.40542207  1
  C  C695  1  0.35015517  0.42826011  0.45903616  1
  H  H696  1  0.30584586  0.37777757  0.46725496  1
  H  H697  1  0.25069578  0.37107199  0.42275630  1
  C  C698  1  0.29782203  0.47111393  0.34624743  1
  C  C699  1  0.43558285  0.39621220  0.36733140  1
  C  C700  1  0.42309939  0.42473198  0.33369322  1
  O  O701  1  0.42350550  0.31614125  0.33621793  1
  C  C702  1  0.26458271  0.39769138  0.40137187  1
  C  C703  1  0.31553961  0.45594195  0.38295607  1
  H  H704  1  0.39420566  0.47633733  0.43741070  1
  C  C705  1  0.45833552  0.49086944  0.44598523  1
  C  C706  1  0.44008365  0.49767460  0.37249680  1
  H  H707  1  0.36686468  0.49297243  0.36841011  1
  H  H708  1  0.41578792  0.49948667  0.31077883  1
  C  C709  1  0.33060354  0.20564459  0.68646692  1
  C  C710  1  0.30486913  0.18784064  0.65729428  1
  C  C711  1  0.31017722  0.15269317  0.62684421  1
  C  C712  1  0.34463584  0.12992595  0.62457897  1
  C  C713  1  0.36451984  0.18759784  0.68282896  1
  C  C714  1  0.37147886  0.14915121  0.65276330  1
  H  H715  1  0.38707654  0.19987979  0.70373800  1
  C  C716  1  0.40846945  0.13073915  0.65021410  1
  H  H717  1  0.42941092  0.13936867  0.67345271  1
  C  C718  1  0.41917100  0.10074755  0.61828074  1
  H  H719  1  0.44678698  0.08735957  0.61530873  1
  H  H720  1  0.28900474  0.14030876  0.60553150  1
  C  C721  1  0.46592244  0.19944333  0.56621716  1
  C  C722  1  0.42727485  0.19474680  0.55645382  1
  C  C723  1  0.35609072  0.09255855  0.59410732  1
  C  C724  1  0.39142818  0.08253533  0.59174513  1
  H  H725  1  0.33643662  0.07633287  0.57418773  1
  H  H726  1  0.27240646  0.10382487  0.69923253  1
  C  C727  1  0.40581576  0.04442310  0.55985237  1
  H  H728  1  0.27860950  0.20505475  0.66301973  1
  C  C729  1  0.40496612  0.22488400  0.58125165  1
  H  H730  1  0.37630912  0.22472303  0.57234192  1
  H  H731  1  0.41582029  0.16880474  0.53347676  1
  O  O732  1  0.38229201  0.02607150  0.53737267  1
  H  H733  1  0.33986731  0.11262221  0.71692731  1
  C  C734  1  0.28538001  0.08596213  0.72863739  1
  O  O735  1  0.43849297  0.03243788  0.55837528  1
  H  H736  1  0.43139044  0.23618575  0.70031481  1
  C  C737  1  0.43757400  0.23504970  0.73472717  1
  C  C738  1  0.47785042  0.22912845  0.60346650  1
  O  O739  1  0.28221994  0.03941875  0.53262790  1
  C  C740  1  0.49307220  0.17401223  0.54467004  1
  H  H741  1  0.48672349  0.14776464  0.52035332  1
  O  O742  1  0.27326464  0.11700321  0.52262357  1
  C  C743  1  0.26171703  0.07384400  0.52445734  1
  N  N744  1  0.45304175  0.19350806  0.74285017  1
  C  C745  1  0.32113744  0.09344492  0.73789040  1
  C  C746  1  0.31777369  0.24717491  0.71518911  1
  O  O747  1  0.28633366  0.25349678  0.71688977  1
  H  H748  1  0.41404417  0.47879878  0.69939727  1
  C  C749  1  0.41737526  0.25528287  0.61428838  1
  C  C750  1  0.45324657  0.25783477  0.62545944  1
  H  H751  1  0.46061043  0.28255485  0.65128354  1
  O  O752  1  0.35768071  0.28846536  0.62007215  1
  C  C753  1  0.38944083  0.28870557  0.63399981  1
  O  O754  1  0.40127171  0.31505900  0.66324257  1
  H  H755  1  0.31649243  0.43906834  0.62237587  1
  O  O756  1  0.44482363  0.40757917  0.68783105  1
  C  C757  1  0.46108107  0.44643005  0.58950761  1
  Zn  Zn758  1  0.39695203  0.41331726  0.65471992  1
  Zn  Zn759  1  0.33669033  0.34189809  0.57080364  1
  O  O760  1  0.36860685  0.39203964  0.59955933  1
  H  H761  1  0.38464524  0.39665995  0.57749813  1
  N  N762  1  0.43889039  0.40609806  0.60303162  1
  C  C763  1  0.45145197  0.36488735  0.58331495  1
  H  H764  1  0.44561031  0.32519693  0.58912056  1
  N  N765  1  0.47835029  0.37098546  0.55736888  1
  C  C766  1  0.45533623  0.37266184  0.71232005  1
  O  O767  1  0.28541317  0.32422433  0.55196947  1
  C  C768  1  0.26762287  0.35896933  0.53333221  1
  O  O769  1  0.27590007  0.40231844  0.53902514  1
  C  C770  1  0.48421223  0.41833800  0.55963344  1
  C  C771  1  0.49186753  0.35116139  0.70040885  1
  C  C772  1  0.32387094  0.47388047  0.63931983  1
  N  N773  1  0.35682004  0.47157267  0.65899945  1
  Zn  Zn774  1  0.38364962  0.32663759  0.72975940  1
  H  H775  1  0.49733739  0.39156440  0.64291206  1
  O  O776  1  0.36562531  0.37706986  0.51652089  1
  O  O777  1  0.39726665  0.44327514  0.50728266  1
  N  N778  1  0.46441973  0.49439682  0.59854024  1
  O  O779  1  0.35610651  0.39230751  0.74404107  1
  O  O780  1  0.43841446  0.36014246  0.74306948  1
  H  H781  1  0.26421061  0.45408800  0.52258760  1
  O  O782  1  0.34038807  0.27396389  0.73604680  1
  O  O783  1  0.28824569  0.00555044  0.93726362  1
  O  O784  1  0.39354112  0.11109238  0.75337007  1
  C  C785  1  0.49431808  0.01720048  0.75423353  1
  C  C786  1  0.26150432  0.06385578  0.75746121  1
  H  H787  1  0.41982585  0.12009563  0.76460689  1
  C  C788  1  0.26034637  0.18680223  0.92604872  1
  C  C789  1  0.33508057  0.07407198  0.77545944  1
  C  C790  1  0.37522696  0.08058862  0.77943875  1
  H  H791  1  0.32369935  0.03421470  0.83563188  1
  C  C792  1  0.42561247  0.03861508  0.94509143  1
  C  C793  1  0.45275379  0.18580955  0.78347040  1
  N  N794  1  0.47024470  0.14505778  0.79987716  1
  C  C795  1  0.43212279  0.21705657  0.81678166  1
  Zn  Zn796  1  0.48951875  0.15414254  0.86450029  1
  N  N797  1  0.44017507  0.19974233  0.85490237  1
  H  H798  1  0.42090069  0.19406301  0.90992200  1
  O  O799  1  0.38106034  0.22373452  0.87152352  1
  H  H800  1  0.33382674  0.18736460  0.83443913  1
  C  C801  1  0.28033418  0.16690770  0.85001783  1
  C  C802  1  0.31343409  0.18679766  0.85925282  1
  C  C803  1  0.32090347  0.20644705  0.90028934  1
  C  C804  1  0.41209800  0.20988775  0.87922785  1
  N  N805  1  0.46926247  0.10724410  0.91707931  1
  H  H806  1  0.45456283  0.13378041  0.93366937  1
  C  C807  1  0.31271675  0.05063428  0.80501653  1
  Zn  Zn808  1  0.44855071  0.07717800  0.80847022  1
  H  H809  1  0.27403542  0.14599376  0.82098311  1
  C  C810  1  0.29484672  0.20700351  0.93334653  1
  C  C811  1  0.45187080  0.05659065  0.91503530  1
  N  N812  1  0.41197386  0.05949610  0.97825084  1
  C  C813  1  0.35469921  0.22990154  0.91158968  1
  O  O814  1  0.39076065  0.06211310  0.80817839  1
  C  C815  1  0.27571103  0.04573340  0.79731275  1
  N  N816  1  0.46026566  0.02899693  0.88199777  1
  H  H817  1  0.30022594  0.22206650  0.96378515  1
  N  N818  1  0.49311913  0.05203376  0.78485026  1
  H  H819  1  0.49236912  0.10639935  0.93816816  1
  O  O820  1  0.36438739  0.24384092  0.94470027  1
  C  C821  1  0.25338487  0.16502704  0.88295075  1
  O  O822  1  0.25876509  0.01202993  0.86351689  1
  C  C823  1  0.39125928  0.02383124  0.99757605  1
  H  H824  1  0.49540126  0.49721935  0.94364712  1
  H  H825  1  0.25002283  0.25462524  0.84843348  1
  C  C826  1  0.49290750  0.47004115  0.91625841  1
  C  C827  1  0.25473940  0.32550268  0.88228366  1
  O  O828  1  0.37172893  0.46448159  0.76519376  1
  C  C829  1  0.48811893  0.38469570  0.89240726  1
  C  C830  1  0.25901412  0.33752067  0.96048227  1
  O  O831  1  0.49812954  0.37013153  0.98333601  1
  C  C832  1  0.26181519  0.37984513  0.87853315  1
  H  H833  1  0.40485178  0.33510391  0.82298563  1
  C  C834  1  0.25084563  0.29577128  0.84612028  1
  O  O835  1  0.36538203  0.48608587  0.97554252  1
  H  H836  1  0.48823536  0.34600494  0.90175945  1
  C  C837  1  0.25283967  0.37033358  0.80498633  1
  H  H838  1  0.33599753  0.32688140  0.94744404  1
  C  C839  1  0.25335681  0.30855204  0.92441782  1
  H  H840  1  0.47639678  0.37081672  0.82631591  1
  N  N841  1  0.41033520  0.30005559  0.82849158  1
  H  H842  1  0.26526654  0.44156263  0.83495296  1
  H  H843  1  0.40927098  0.28938150  0.85966240  1
  H  H844  1  0.26866409  0.45054031  0.90649801  1
  O  O845  1  0.25497222  0.44329475  0.76058984  1
  H  H846  1  0.31748799  0.35411769  0.80285145  1
  C  C847  1  0.38363000  0.42536921  0.84737613  1
  C  C848  1  0.36187458  0.42348299  0.77351915  1
  H  H849  1  0.40015729  0.45672754  0.83679171  1
  C  C850  1  0.48315965  0.46547498  0.79674876  1
  H  H851  1  0.31428804  0.31742501  0.87560438  1
  N  N852  1  0.42120623  0.26950651  0.75832520  1
  C  C853  1  0.26322256  0.39170679  0.95464183  1
  C  C854  1  0.49499216  0.41126825  0.97033476  1
  C  C855  1  0.49343899  0.41954319  0.92360849  1
  H  H856  1  0.43350871  0.41300201  0.98100120  1
  C  C857  1  0.33408084  0.34582330  0.86620250  1
  C  C858  1  0.35757234  0.35080982  0.93948787  1
  C  C859  1  0.26119661  0.40188905  0.83880578  1
  C  C860  1  0.38379718  0.36751278  0.96955039  1
  C  C861  1  0.48142096  0.39828025  0.85066745  1
  C  C862  1  0.41233901  0.40378014  0.95892415  1
  C  C863  1  0.26652055  0.41050659  0.91290453  1
  H  H864  1  0.42868097  0.45534912  0.90965107  1
  C  C865  1  0.48242358  0.44888564  0.83909184  1
  H  H866  1  0.48333530  0.43868592  0.77097449  1
  C  C867  1  0.42027012  0.26386536  0.80115644  1
  H  H868  1  0.49096848  0.31320607  0.76134102  1
  C  C869  1  0.35787660  0.36759703  0.89817267  1
  C  C870  1  0.48771604  0.48397322  0.87408812  1
  C  C871  1  0.40950390  0.42494379  0.91918625  1
  C  C872  1  0.33704214  0.36424886  0.82716446  1
  C  C873  1  0.38469656  0.40586879  0.88919296  1
  C  C874  1  0.36110012  0.40390722  0.81954871  1
  O  O875  1  0.49046425  0.45214476  0.99852888  1
  O  O876  1  0.26393245  0.41746206  0.98629318  1
  C  C877  1  0.44987727  0.69700571  0.06410305  1
  C  C878  1  0.48500193  0.71919725  0.06124837  1
  C  C879  1  0.39568089  0.66304964  0.10423516  1
  C  C880  1  0.43019843  0.69148185  0.10340997  1
  C  C881  1  0.44855810  0.70927792  0.13850133  1
  C  C882  1  0.48225215  0.72926713  0.13564335  1
  C  C883  1  0.38230807  0.64958334  0.06354859  1
  O  O884  1  0.33270091  0.60314834  0.09145485  1
  N  N885  1  0.30368756  0.63121050  0.20630285  1
  N  N886  1  0.36690543  0.63179414  0.21909804  1
  Zn  Zn887  1  0.31813463  0.63808187  0.14547730  1
  O  O888  1  0.37983097  0.65799835  0.13809518  1
  H  H889  1  0.37964553  0.63220905  0.18924696  1
  H  H890  1  0.43605094  0.70911467  0.17099164  1
  C  C891  1  0.34926112  0.61926038  0.05963222  1
  C  C892  1  0.43315848  0.68181027  0.02669056  1
  C  C893  1  0.39897454  0.66082316  0.02598789  1
  C  C894  1  0.33124983  0.62387489  0.23277630  1
  O  O895  1  0.28012663  0.69054803  0.11812589  1
  C  C896  1  0.28298886  0.70029202  0.07931058  1
  C  C897  1  0.26847184  0.63402847  0.22049961  1
  C  C898  1  0.47505981  0.58163127  0.10705336  1
  C  C899  1  0.47352695  0.56159362  0.15071266  1
  O  O900  1  0.33746726  0.61209799  0.02368952  1
  C  C901  1  0.44304386  0.57944811  0.08022433  1
  H  H902  1  0.44474784  0.59334970  0.04781531  1
  N  N903  1  0.29433350  0.51767907  0.05230275  1
  C  C904  1  0.26844519  0.52384925  0.08293553  1
  C  C905  1  0.41138175  0.55857601  0.09436696  1
  C  C906  1  0.43991001  0.54623016  0.16609833  1
  C  C907  1  0.40867821  0.54151452  0.13798262  1
  H  H908  1  0.49659805  0.56185383  0.17326061  1
  H  H909  1  0.32512244  0.73887706  0.13165311  1
  H  H910  1  0.38756525  0.55474144  0.07374619  1
  H  H911  1  0.38650466  0.62050467  0.24112186  1
  H  H912  1  0.45633295  0.53216578  0.23489512  1
  C  C913  1  0.43508841  0.53247673  0.20952847  1
  C  C914  1  0.37404377  0.52652341  0.15288240  1
  H  H915  1  0.49603722  0.74267223  0.16393094  1
  H  H916  1  0.34810993  0.52792158  0.13485458  1
  H  H917  1  0.49994580  0.72046328  0.03202029  1
  C  C918  1  0.37321711  0.51904430  0.19592471  1
  C  C919  1  0.40152789  0.52202260  0.22558424  1
  O  O920  1  0.26572109  0.68355580  0.05210867  1
  C  C921  1  0.31752402  0.72941264  0.06577689  1
  C  C922  1  0.33716955  0.50812757  0.21435982  1
  C  C923  1  0.33016082  0.73751831  0.02627204  1
  O  O924  1  0.30977848  0.50674400  0.19556202  1
  C  C925  1  0.33485672  0.75227372  0.09945491  1
  C  C926  1  0.36515730  0.78093422  0.09645622  1
  H  H927  1  0.32339349  0.80298972  0.22741396  1
  H  H928  1  0.45157532  0.95360162  0.08223399  1
  H  H929  1  0.37920296  0.79423755  0.12459970  1
  C  C930  1  0.38188856  0.78701638  0.05623388  1
  C  C931  1  0.37597693  0.84141352  0.22013212  1
  H  H932  1  0.27827355  0.80149431  0.16311062  1
  C  C933  1  0.34035289  0.82511491  0.20698643  1
  H  H934  1  0.43039117  0.82516947  0.07721185  1
  C  C935  1  0.41327519  0.81465433  0.05069570  1
  H  H936  1  0.42188157  0.89376352  0.20992905  1
  C  C937  1  0.39573682  0.88076266  0.19864101  1
  C  C938  1  0.29545768  0.83098354  0.15038908  1
  C  C939  1  0.32875737  0.84731361  0.16955506  1
  C  C940  1  0.28536294  0.84918415  0.11177034  1
  C  C941  1  0.38276103  0.90351456  0.16340856  1
  C  C942  1  0.35088538  0.88493797  0.14359453  1
  H  H943  1  0.39584592  0.93782194  0.15080006  1
  C  C944  1  0.29069233  0.90603647  0.04904651  1
  C  C945  1  0.33707040  0.90243216  0.10631297  1
  C  C946  1  0.30452768  0.88506261  0.09004063  1
  H  H947  1  0.35199932  0.93243658  0.09294998  1
  C  C948  1  0.44087456  0.96779099  0.11271784  1
  C  C949  1  0.45482061  0.95353712  0.15300551  1
  C  C950  1  0.44246074  0.97661296  0.19214443  1
  O  O951  1  0.30946707  0.93735437  0.03022031  1
  O  O952  1  0.26127809  0.89239791  0.03453698  1
  O  O953  1  0.47008483  0.88001793  0.04269679  1
  C  C954  1  0.45227369  0.95477142  0.23171866  1
  C  C955  1  0.36179677  0.76623885  0.01965434  1
  C  C956  1  0.42494226  0.82467261  0.00984301  1
  C  C957  1  0.45795436  0.85643355  0.00659450  1
  C  C958  1  0.47736687  0.91009821  0.15525695  1
  C  C959  1  0.25647964  0.88220742  0.24345153  1
  H  H960  1  0.26154258  0.83534869  0.09401579  1
  H  H961  1  0.48328278  0.89077872  0.12661864  1
  C  C962  1  0.48567219  0.88947723  0.19410453  1
  C  C963  1  0.47365724  0.91279566  0.23172898  1
  H  H964  1  0.49956894  0.85217971  0.19655063  1
  H  H965  1  0.49335494  0.89247583  0.03126712  1
  O  O966  1  0.45213629  0.74598758  0.49807275  1
  O  O967  1  0.33687335  0.50453789  0.25930271  1
  H  H968  1  0.27508262  0.70873106  0.26448974  1
  O  O969  1  0.46093949  0.64090876  0.45287852  1
  N  N970  1  0.27211407  0.59531199  0.32225271  1
  C  C971  1  0.45552135  0.62424732  0.41912180  1
  O  O972  1  0.45520754  0.65216344  0.38406301  1
  C  C973  1  0.32200252  0.61321282  0.27659805  1
  C  C974  1  0.36914925  0.60823645  0.30326238  1
  O  O975  1  0.40091392  0.60971961  0.30708690  1
  N  N976  1  0.33563988  0.60472711  0.31475119  1
  C  C977  1  0.36828542  0.65012025  0.40729317  1
  Zn  Zn978  1  0.30824026  0.58752172  0.37244103  1
  C  C979  1  0.33392418  0.63490033  0.46095986  1
  C  C980  1  0.35566460  0.67994536  0.46752491  1
  N  N981  1  0.34172335  0.61956025  0.42043128  1
  H  H982  1  0.37842990  0.65052614  0.37510024  1
  N  N983  1  0.37836399  0.68658705  0.43431674  1
  H  H984  1  0.30468052  0.54931083  0.46728600  1
  C  C985  1  0.27872817  0.61135603  0.28313845  1
  C  C986  1  0.47252286  0.70137409  0.38254023  1
  C  C987  1  0.45264230  0.57029756  0.41194042  1
  H  H988  1  0.43553357  0.57124498  0.34735584  1
  C  C989  1  0.44419662  0.54927905  0.37368690  1
  C  C990  1  0.45794312  0.53999447  0.44854995  1
  O  O991  1  0.28621824  0.68985561  0.40060855  1
  C  C992  1  0.28931789  0.74096583  0.28034223  1
  C  C993  1  0.31405524  0.73198812  0.31324057  1
  H  H994  1  0.29057944  0.65219133  0.40740669  1
  N  N995  1  0.30752403  0.56604432  0.49707026  1
  N  N996  1  0.25414161  0.58588862  0.40283124  1
  O  O997  1  0.33463035  0.72929210  0.34055490  1
  N  N998  1  0.25246915  0.62481748  0.25607108  1
  C  C999  1  0.31485361  0.61651949  0.49830589  1
  H  H1000  1  0.30689859  0.70567039  0.38879758  1
  H  H1001  1  0.46111315  0.55712388  0.47977953  1
  N  N1002  1  0.45608113  0.73969707  0.39711055  1
  H  H1003  1  0.39703826  0.51631451  0.25959226  1
  C  C1004  1  0.39138577  0.82403346  0.25921385  1
  C  C1005  1  0.25123194  0.95302364  0.37616664  1
  O  O1006  1  0.49979061  0.83949606  0.27238167  1
  C  C1007  1  0.49827581  0.85714861  0.38871342  1
  C  C1008  1  0.27807042  0.79044800  0.27046107  1
  H  H1009  1  0.31717889  0.82734147  0.30941343  1
  C  C1010  1  0.36404658  0.87865301  0.48952426  1
  H  H1011  1  0.25070280  0.89619248  0.32982920  1
  C  C1012  1  0.47850985  0.77882939  0.38993667  1
  H  H1013  1  0.31409248  0.98160317  0.48367917  1
  C  C1014  1  0.48424340  0.88763427  0.27108612  1
  N  N1015  1  0.38454662  0.79506560  0.46805704  1
  C  C1016  1  0.37468631  0.83892252  0.45802177  1
  O  O1017  1  0.47934652  0.90689878  0.30406083  1
  C  C1018  1  0.25548381  0.89140840  0.48684605  1
  N  N1019  1  0.37411165  0.85209353  0.41663508  1
  N  N1020  1  0.33467427  0.96044040  0.49622575  1
  C  C1021  1  0.35950518  0.89552779  0.40790343  1
  N  N1022  1  0.34198059  0.92922280  0.42954759  1
  H  H1023  1  0.35712204  0.89999361  0.37289008  1
  O  O1024  1  0.27007843  0.89684972  0.45324592  1
  N  N1025  1  0.46902032  0.82669022  0.39775979  1
  O  O1026  1  0.32411207  0.93275199  0.31188064  1
  Zn  Zn1027  1  0.40948948  0.75218730  0.42824815  1
  O  O1028  1  0.40445900  0.81045794  0.29012222  1
  Zn  Zn1029  1  0.29354794  0.97885139  0.40634299  1
  C  C1030  1  0.30396628  0.92721726  0.28344045  1
  O  O1031  1  0.29524513  0.97283179  0.26025046  1
  C  C1032  1  0.35018865  0.92368257  0.46964789  1
  C  C1033  1  0.28782859  0.87987618  0.27051031  1
  H  H1034  1  0.31591464  0.99182060  0.26821392  1
  H  H1035  1  0.44272034  0.97073063  0.26190094  1
  C  C1036  1  0.29526975  0.83258208  0.28494416  1
  H  H1037  1  0.49015173  0.88713008  0.36716583  1
  C  C1038  1  0.43587533  0.64998027  0.65027238  1
  C  C1039  1  0.42375732  0.69648736  0.63246845  1
  H  H1040  1  0.32468847  0.66984855  0.66769266  1
  H  H1041  1  0.32122536  0.70437731  0.56184006  1
  C  C1042  1  0.32721555  0.62906280  0.66247548  1
  N  N1043  1  0.30565275  0.60120868  0.63532713  1
  N  N1044  1  0.35010602  0.60452825  0.68601585  1
  N  N1045  1  0.43282535  0.60579819  0.62974538  1
  Zn  Zn1046  1  0.27205233  0.62136211  0.58546229  1
  N  N1047  1  0.45403584  0.65165703  0.68899397  1
  C  C1048  1  0.31355098  0.55015233  0.64283788  1
  C  C1049  1  0.34419626  0.55573733  0.67323560  1
  C  C1050  1  0.40807300  0.69860572  0.58824899  1
  O  O1051  1  0.26907782  0.71418633  0.66460233  1
  C  C1052  1  0.41577416  0.61447429  0.59421594  1
  N  N1053  1  0.30754907  0.64244058  0.53348497  1
  H  H1054  1  0.41064461  0.57940069  0.57705483  1
  N  N1055  1  0.40529842  0.65258638  0.57091934  1
  C  C1056  1  0.32420958  0.68396564  0.53113358  1
  H  H1057  1  0.47102899  0.62596532  0.70413298  1
  H  H1058  1  0.45549511  0.68601888  0.70455419  1
  Zn  Zn1059  1  0.44723783  0.53641800  0.65533375  1
  H  H1060  1  0.45979576  0.65615102  0.56802620  1
  C  C1061  1  0.36726699  0.51343305  0.67856686  1
  H  H1062  1  0.26531438  0.65974978  0.72866200  1
  Zn  Zn1063  1  0.38439041  0.62884996  0.73360378  1
  C  C1064  1  0.29817543  0.72437792  0.73174963  1
  O  O1065  1  0.47679497  0.50724856  0.71425953  1
  O  O1066  1  0.48033402  0.58025910  0.73906614  1
  H  H1067  1  0.46072896  0.74957494  0.57391335  1
  C  C1068  1  0.29229634  0.73557224  0.68448737  1
  C  C1069  1  0.48453810  0.72588720  0.57927355  1
  O  O1070  1  0.26645871  0.59176414  0.70831097  1
  H  H1071  1  0.29278892  0.59193627  0.70316440  1
  N  N1072  1  0.40208123  0.51116699  0.69344019  1
  C  C1073  1  0.48495902  0.67504529  0.57695511  1
  C  C1074  1  0.48253250  0.53575243  0.74437970  1
  H  H1075  1  0.29387990  0.54272351  0.51807707  1
  N  N1076  1  0.34839335  0.70644479  0.50471486  1
  N  N1077  1  0.30215930  0.50830787  0.62494054  1
  C  C1078  1  0.49070312  0.50956536  0.57238146  1
  H  H1079  1  0.25911474  0.59545655  0.68019195  1
  C  C1080  1  0.28156272  0.68452130  0.74964386  1
  N  N1081  1  0.42248205  0.74327244  0.64653175  1
  N  N1082  1  0.39948366  0.74700264  0.58102605  1
  O  O1083  1  0.48839134  0.56942565  0.57803252  1
  Zn  Zn1084  1  0.25910554  0.50029459  0.58517240  1
  O  O1085  1  0.31316692  0.76624289  0.66776078  1
  C  C1086  1  0.40846679  0.77174045  0.61516124  1
  Zn  Zn1087  1  0.37610576  0.77301232  0.52729646  1
  H  H1088  1  0.39144714  0.76950100  0.71960908  1
  H  H1089  1  0.28867374  0.89534214  0.67080970  1
  H  H1090  1  0.40327350  0.81334551  0.61750923  1
  C  C1091  1  0.39350301  0.80376246  0.73938160  1
  H  H1092  1  0.37155666  0.82434510  0.66043807  1
  C  C1093  1  0.37428438  0.85781512  0.68147284  1
  C  C1094  1  0.38470533  0.85154685  0.72375868  1
  O  O1095  1  0.36470477  0.87306761  0.59512209  1
  C  C1096  1  0.37102807  0.90644495  0.66868763  1
  C  C1097  1  0.37084398  0.95143145  0.69114974  1
  C  C1098  1  0.36339024  0.91566449  0.62301606  1
  O  O1099  1  0.35552416  0.95498507  0.60965055  1
  H  H1100  1  0.44463173  0.92512904  0.71881794  1
  C  C1101  1  0.36319972  0.88382397  0.55593712  1
  H  H1102  1  0.30134989  0.85359346  0.60611827  1
  H  H1103  1  0.35920714  0.92245755  0.54522459  1
  C  C1104  1  0.38027828  0.94484031  0.73196183  1
  C  C1105  1  0.46806555  0.95110927  0.72187346  1
  C  C1106  1  0.27453308  0.83573880  0.60896460  1
  H  H1107  1  0.28299545  0.79857942  0.54943373  1
  N  N1108  1  0.36902619  0.85333825  0.52502139  1
  C  C1109  1  0.26362073  0.80439062  0.57634262  1
  O  O1110  1  0.46183685  0.82310865  0.50498188  1
  O  O1111  1  0.27812254  0.89047073  0.52266213  1
  H  H1112  1  0.36263594  0.98681229  0.67618101  1
  C  C1113  1  0.26389658  0.87449035  0.67589045  1
  C  C1114  1  0.38772367  0.89681990  0.74884305  1
  C  C1115  1  0.47283690  0.78210580  0.50027522  1
  N  N1116  1  0.49368592  0.93306076  0.69815006  1
  H  H1117  1  0.29962211  0.90539852  0.50939123  1
  H  H1118  1  0.49329831  0.98399182  0.55407995  1
  C  C1119  1  0.25252315  0.91421594  0.74460983  1
  H  H1120  1  0.33072187  0.79195653  0.73957124  1
  O  O1121  1  0.27684630  0.94173186  0.74467429  1
  H  H1122  1  0.48866357  0.81954490  0.59221527  1
  C  C1123  1  0.25150328  0.83977524  0.64534926  1
  H  H1124  1  0.35431296  0.98470868  0.50780410  1
  N  N1125  1  0.46455313  0.98729387  0.74969502  1
  O  O1126  1  0.44186421  0.70748470  0.75388835  1
  C  C1127  1  0.48693625  0.53502054  0.86207094  1
  C  C1128  1  0.38785829  0.51552682  0.96654641  1
  C  C1129  1  0.42029452  0.67767093  0.76671626  1
  C  C1130  1  0.29107012  0.66757943  0.78944112  1
  H  H1131  1  0.27615821  0.57640696  0.86305074  1
  C  C1132  1  0.27621983  0.62409576  0.80889238  1
  C  C1133  1  0.40463964  0.64702217  0.79738392  1
  C  C1134  1  0.38099823  0.60981543  0.80957884  1
  O  O1135  1  0.36521743  0.58289860  0.83270870  1
  C  C1136  1  0.41651604  0.54899596  0.95696546  1
  H  H1137  1  0.37834605  0.59466063  0.91662614  1
  C  C1138  1  0.42986070  0.62413672  0.91695878  1
  C  C1139  1  0.40517170  0.58903632  0.93004513  1
  C  C1140  1  0.28640766  0.61310648  0.84967774  1
  C  C1141  1  0.46629569  0.62634530  0.93203473  1
  C  C1142  1  0.45393785  0.54656095  0.96967928  1
  O  O1143  1  0.31258863  0.58552830  0.93589192  1
  H  H1144  1  0.42096753  0.65191115  0.89563986  1
  C  C1145  1  0.30969171  0.64467411  0.87277381  1
  C  C1146  1  0.31982395  0.63820891  0.91757857  1
  C  C1147  1  0.32316979  0.68958856  0.85687558  1
  H  H1148  1  0.28754252  0.58514308  0.92610055  1
  C  C1149  1  0.31432929  0.70244363  0.81452454  1
  O  O1150  1  0.33734095  0.66514042  0.93859498  1
  C  C1151  1  0.48643626  0.51460287  0.78827803  1
  H  H1152  1  0.34044400  0.71218239  0.87463020  1
  C  C1153  1  0.47832579  0.58203204  0.95829664  1
  H  H1154  1  0.48072470  0.70317710  0.91478513  1
  C  C1155  1  0.48646304  0.55030562  0.82085506  1
  H  H1156  1  0.48538914  0.58805451  0.80862565  1
  H  H1157  1  0.44622763  0.69153839  0.99633087  1
  H  H1158  1  0.25573140  0.60238882  0.79241502  1
  C  C1159  1  0.48918896  0.66652968  0.92846292  1
  H  H1160  1  0.46141529  0.51824317  0.99017645  1
  H  H1161  1  0.48551244  0.56433807  0.88603489  1
  H  H1162  1  0.38317129  0.65103267  0.99766097  1
  C  C1163  1  0.32533471  0.74860686  0.79786771  1
  Zn  Zn1164  1  0.29903527  0.56524690  0.99844280  1
  H  H1165  1  0.31759192  0.71879949  0.99841045  1
  C  C1166  1  0.31924020  0.75766124  0.75514703  1
  C  C1167  1  0.37601207  0.77641722  0.97988980  1
  C  C1168  1  0.29218602  0.84500546  0.83435830  1
  C  C1169  1  0.27254408  0.81242873  0.81115690  1
  C  C1170  1  0.30938027  0.88545993  0.90085128  1
  C  C1171  1  0.40771526  0.80471798  0.97484940  1
  N  N1172  1  0.41632109  0.96289760  0.90144604  1
  Zn  Zn1173  1  0.33010633  0.95319716  0.96594419  1
  H  H1174  1  0.36191197  0.75722375  0.95174513  1
  H  H1175  1  0.41648636  0.81537142  0.94351767  1
  H  H1176  1  0.38133644  0.97463394  0.75422741  1
  O  O1177  1  0.39895092  0.92940468  0.81598961  1
  H  H1178  1  0.40600591  0.76206674  0.79435575  1
  C  C1179  1  0.28631959  0.84737463  0.87850376  1
  O  O1180  1  0.32991907  0.91022412  0.87999828  1
  H  H1181  1  0.26042051  0.82683419  0.93563474  1
  Zn  Zn1182  1  0.40033038  0.89437351  0.88117515  1
  O  O1183  1  0.40603445  0.78843233  0.87262049  1
  C  C1184  1  0.39965250  0.79786463  0.78196409  1
  C  C1185  1  0.39943421  0.82407153  0.85199764  1
  O  O1186  1  0.30783059  0.89049034  0.94138726  1
  C  C1187  1  0.44030439  0.98824378  0.88410752  1
  C  C1188  1  0.40713121  0.98927634  0.93732657  1
  H  H1189  1  0.27571666  0.80852441  0.77701370  1
  H  H1190  1  0.33602068  0.77755039  0.81893135  1
  C  C1191  1  0.39699243  0.84019154  0.80877095  1
  C  C1192  1  0.26191014  0.82080000  0.90194228  1
  C  C1193  1  0.39479212  0.89314655  0.79374234  1
  H  H1194  1  0.31176190  0.86981364  0.81902884  1
  N  N1195  1  0.38201475  0.98347552  0.96886194  1
  O  O1196  1  0.47290111  0.86466972  0.97380448  1
  H  H1197  1  0.28384241  0.99897826  0.90550004  1
  C  C1198  1  0.57117676  0.06665631  0.05072975  1
  C  C1199  1  0.55367571  0.15471855  0.04775820  1
  C  C1200  1  0.55485116  0.20434645  0.02948199  1
  C  C1201  1  0.52157550  0.14533801  0.07394942  1
  N  N1202  1  0.69485403  0.17881788  0.08558266  1
  C  C1203  1  0.53890223  0.05657813  0.07806938  1
  C  C1204  1  0.51399757  0.09820268  0.08703710  1
  C  C1205  1  0.57719047  0.11416760  0.03334478  1
  C  C1206  1  0.72710189  0.16758913  0.07089930  1
  C  C1207  1  0.67810091  0.16231244  0.05126784  1
  H  H1208  1  0.67471674  0.06739848  0.08082162  1
  N  N1209  1  0.65246272  0.15490014  0.02271906  1
  H  H1210  1  0.50155637  0.17731645  0.07969950  1
  C  C1211  1  0.59624992  0.02756588  0.04057336  1
  Zn  Zn1212  1  0.67696836  0.22994744  0.13358372  1
  H  H1213  1  0.63391220  0.05054429  0.14066335  1
  C  C1214  1  0.67330218  0.03149565  0.09630531  1
  C  C1215  1  0.65018437  0.02070644  0.12959975  1
  H  H1216  1  0.71076586  0.02977479  0.02180948  1
  O  O1217  1  0.53920883  0.24215918  0.03133030  1
  H  H1218  1  0.64374836  0.23661078  0.05383665  1
  O  O1219  1  0.73511908  0.15715633  0.20046067  1
  H  H1220  1  0.59998455  0.11856815  0.01309582  1
  C  C1221  1  0.53716851  0.00952134  0.09750042  1
  H  H1222  1  0.51373409  0.00373529  0.11931128  1
  O  O1223  1  0.60349582  0.22994235  0.18862326  1
  C  C1224  1  0.63148239  0.24749023  0.17989430  1
  C  C1225  1  0.68209550  0.14228980  0.00155744  1
  H  H1226  1  0.61712353  0.03478212  0.01686512  1
  H  H1227  1  0.60407680  0.25502663  0.06214973  1
  N  N1228  1  0.62407654  0.25809444  0.04066766  1
  C  C1229  1  0.66233523  0.27948821  0.18618967  1
  O  O1230  1  0.67995748  0.31123004  0.20145685  1
  H  H1231  1  0.52344139  0.40215421  0.18740788  1
  H  H1232  1  0.51656087  0.31195377  0.07753745  1
  C  C1233  1  0.55738694  0.47468081  0.10318868  1
  C  C1234  1  0.57582578  0.42952510  0.09843326  1
  Zn  Zn1235  1  0.70342063  0.45361795  0.11645064  1
  N  N1236  1  0.67673939  0.39364335  0.10168919  1
  C  C1237  1  0.66018145  0.38287044  0.06439002  1
  N  N1238  1  0.65891620  0.31263268  0.10474365  1
  C  C1239  1  0.67479621  0.35331087  0.12480535  1
  H  H1240  1  0.68976265  0.35153841  0.15568468  1
  C  C1241  1  0.52003461  0.48124785  0.10309144  1
  C  C1242  1  0.65057858  0.33006609  0.06642936  1
  N  N1243  1  0.65048664  0.40678166  0.02604049  1
  C  C1244  1  0.51949097  0.38882907  0.09256065  1
  C  C1245  1  0.55884395  0.38402189  0.09428221  1
  H  H1246  1  0.57083420  0.34962747  0.09395508  1
  Zn  Zn1247  1  0.61484095  0.48176011  0.10628555  1
  C  C1248  1  0.63468828  0.30982609  0.02879366  1
  Zn  Zn1249  1  0.66016586  0.48381636  0.01661441  1
  C  C1250  1  0.57716546  0.40711079  0.21136642  1
  H  H1251  1  0.58270079  0.44316491  0.19444201  1
  C  C1252  1  0.53798666  0.34240727  0.23047282  1
  C  C1253  1  0.54339173  0.38681371  0.20761229  1
  H  H1254  1  0.64483402  0.44336204  0.22537247  1
  C  C1255  1  0.60453714  0.38841075  0.24084041  1
  N  N1256  1  0.69456332  0.49794357  0.20174298  1
  N  N1257  1  0.74287069  0.46899268  0.07168914  1
  O  O1258  1  0.50740258  0.48580672  0.21786626  1
  C  C1259  1  0.50098539  0.34399539  0.08592537  1
  C  C1260  1  0.63975264  0.40914803  0.24259682  1
  H  H1261  1  0.74127181  0.07331904  0.37440334  1
  O  O1262  1  0.64629666  0.05087516  0.30400768  1
  H  H1263  1  0.71412938  0.07513068  0.28554615  1
  O  O1264  1  0.57605443  0.17281992  0.26554913  1
  C  C1265  1  0.70283143  0.00679251  0.31636526  1
  C  C1266  1  0.59999226  0.18287606  0.28837138  1
  C  C1267  1  0.63111249  0.19843192  0.31294644  1
  H  H1268  1  0.62156099  0.15033733  0.36725573  1
  C  C1269  1  0.64046493  0.17685443  0.35224150  1
  C  C1270  1  0.66989767  0.19750115  0.37247642  1
  H  H1271  1  0.67464129  0.18001925  0.40394000  1
  O  O1272  1  0.68669675  0.08405956  0.42822275  1
  C  C1273  1  0.65387488  0.23515444  0.29177502  1
  C  C1274  1  0.69462369  0.23477295  0.35726183  1
  C  C1275  1  0.68396298  0.07479952  0.46402166  1
  O  O1276  1  0.73250910  0.14875301  0.32107642  1
  O  O1277  1  0.74424987  0.20352421  0.46048165  1
  C  C1278  1  0.58512750  0.23348053  0.41966250  1
  H  H1279  1  0.73582934  0.23829185  0.40774125  1
  O  O1280  1  0.58330039  0.19462732  0.41781905  1
  C  C1281  1  0.74399033  0.20736348  0.49781319  1
  C  C1282  1  0.72594923  0.04164815  0.30028552  1
  H  H1283  1  0.62643042  0.03415110  0.47030338  1
  C  C1284  1  0.60047474  0.01319497  0.47537016  1
  C  C1285  1  0.66296623  0.01519463  0.31349482  1
  H  H1286  1  0.64875020  0.24831965  0.25967094  1
  H  H1287  1  0.56498417  0.10405661  0.48861259  1
  O  O1288  1  0.54355339  0.12082852  0.49606965  1
  C  C1289  1  0.52597572  0.49055101  0.36691770  1
  C  C1290  1  0.52559932  0.35315842  0.33734762  1
  O  O1291  1  0.73118581  0.41735018  0.27799668  1
  C  C1292  1  0.53736555  0.41664810  0.41093435  1
  C  C1293  1  0.65351922  0.33776147  0.43237298  1
  N  N1294  1  0.67860838  0.47978159  0.36584198  1
  C  C1295  1  0.66316774  0.38695381  0.27365716  1
  N  N1296  1  0.72142779  0.43100107  0.40984848  1
  C  C1297  1  0.62834930  0.45808367  0.47665370  1
  H  H1298  1  0.60716437  0.41533370  0.34600674  1
  C  C1299  1  0.70434582  0.29421182  0.29660473  1
  C  C1300  1  0.70532138  0.46642709  0.38886968  1
  C  C1301  1  0.53365865  0.33284183  0.37574553  1
  H  H1302  1  0.52007239  0.33061120  0.30809634  1
  C  C1303  1  0.56123070  0.31887138  0.25850310  1
  C  C1304  1  0.68257055  0.25499252  0.31460843  1
  C  C1305  1  0.52505482  0.40584727  0.33364746  1
  C  C1306  1  0.60605324  0.48967971  0.46579200  1
  C  C1307  1  0.51540192  0.48170375  0.29367673  1
  H  H1308  1  0.66870155  0.34383018  0.33244481  1
  H  H1309  1  0.64776776  0.43501552  0.45919319  1
  H  H1310  1  0.53592335  0.29228175  0.37965895  1
  N  N1311  1  0.61836715  0.44985268  0.35125512  1
  C  C1312  1  0.65269732  0.44664205  0.37039926  1
  H  H1313  1  0.63871115  0.30385073  0.43770610  1
  C  C1314  1  0.61602894  0.33360511  0.30243928  1
  C  C1315  1  0.74156347  0.29360425  0.35908164  1
  C  C1316  1  0.53047589  0.43792334  0.37119755  1
  H  H1317  1  0.55581957  0.28540214  0.27569162  1
  C  C1318  1  0.72519069  0.25368854  0.37782571  1
  H  H1319  1  0.51489835  0.41322826  0.26641230  1
  H  H1320  1  0.69947060  0.31039075  0.26553144  1
  Zn  Zn1321  1  0.73091622  0.30478992  0.47140830  1
  C  C1322  1  0.70199167  0.40167223  0.27400404  1
  C  C1323  1  0.73397133  0.31281642  0.31878090  1
  H  H1324  1  0.60852114  0.30888008  0.32781138  1
  C  C1325  1  0.59376661  0.34481054  0.26630824  1
  O  O1326  1  0.57292136  0.32635990  0.47966341  1
  C  C1327  1  0.65738299  0.40340639  0.39846144  1
  H  H1328  1  0.71030841  0.49689111  0.25673098  1
  C  C1329  1  0.64993417  0.35441196  0.30693499  1
  C  C1330  1  0.51757712  0.43145351  0.29624911  1
  C  C1331  1  0.55937343  0.34326568  0.44964002  1
  C  C1332  1  0.69387764  0.39696791  0.41614136  1
  H  H1333  1  0.61411322  0.46689784  0.32205747  1
  H  H1334  1  0.54214530  0.44011877  0.43836536  1
  N  N1335  1  0.63524021  0.36737456  0.40815668  1
  N  N1336  1  0.69004679  0.35171011  0.43677042  1
  C  C1337  1  0.54241728  0.36500154  0.41156182  1
  H  H1338  1  0.55716567  0.43297873  0.49383480  1
  H  H1339  1  0.65688840  0.13613905  0.51576039  1
  C  C1340  1  0.67140441  0.10022830  0.57626085  1
  C  C1341  1  0.66984779  0.10574733  0.53291672  1
  H  H1342  1  0.64147994  0.16982287  0.58864751  1
  C  C1343  1  0.65622084  0.13801106  0.60189495  1
  C  C1344  1  0.68971368  0.05590983  0.59511243  1
  H  H1345  1  0.55842116  0.10074057  0.72741089  1
  C  C1346  1  0.68032943  0.09187301  0.66415145  1
  C  C1347  1  0.66140765  0.13192646  0.64438093  1
  C  C1348  1  0.69533122  0.05369659  0.63831182  1
  H  H1349  1  0.62195178  0.05021872  0.55457389  1
  C  C1350  1  0.59577524  0.03327578  0.55355761  1
  H  H1351  1  0.71107189  0.02127228  0.65212918  1
  C  C1352  1  0.53053684  0.18230954  0.55314926  1
  C  C1353  1  0.58177009  0.01522287  0.51535850  1
  C  C1354  1  0.57186274  0.03978100  0.59017864  1
  C  C1355  1  0.69685509  0.01806400  0.52629850  1
  H  H1356  1  0.65009311  0.16005739  0.66394777  1
  N  N1357  1  0.56194960  0.01742392  0.72938353  1
  C  C1358  1  0.68185032  0.09396007  0.70939138  1
  O  O1359  1  0.58644818  0.08542827  0.65971919  1
  C  C1360  1  0.58187391  0.06470038  0.62841853  1
  C  C1361  1  0.55860882  0.15806635  0.52638236  1
  O  O1362  1  0.59006790  0.16058596  0.53094405  1
  C  C1363  1  0.54004478  0.21050215  0.58835873  1
  H  H1364  1  0.56938090  0.20937079  0.59882738  1
  C  C1365  1  0.70310294  0.01739691  0.56838142  1
  C  C1366  1  0.68241485  0.06505216  0.50881331  1
  C  C1367  1  0.53360173  0.02694605  0.58730788  1
  Zn  Zn1368  1  0.71145605  0.03000952  0.72624972  1
  H  H1369  1  0.73581231  0.20093116  0.58290073  1
  H  H1370  1  0.51714885  0.03206451  0.61730091  1
  O  O1371  1  0.65770981  0.24158880  0.64001279  1
  C  C1372  1  0.52116707  0.00104617  0.55264001  1
  C  C1373  1  0.74662474  0.16603595  0.57073467  1
  H  H1374  1  0.74978924  0.12369502  0.62986970  1
  C  C1375  1  0.52584234  0.00267414  0.72979312  1
  O  O1376  1  0.67130596  0.12289429  0.73487988  1
  C  C1377  1  0.51481577  0.23552045  0.61357837  1
  O  O1378  1  0.73622269  0.25014032  0.51462932  1
  H  H1379  1  0.60534374  0.25755983  0.69244007  1
  H  H1380  1  0.52436701  0.25997463  0.63891255  1
  H  H1381  1  0.71626278  0.26308599  0.67133868  1
  C  C1382  1  0.64275110  0.27398366  0.62035714  1
  O  O1383  1  0.65626931  0.28445846  0.58665270  1
  C  C1384  1  0.59128330  0.28570879  0.67304604  1
  C  C1385  1  0.60685147  0.29969452  0.63575606  1
  H  H1386  1  0.61031296  0.35037544  0.58055251  1
  C  C1387  1  0.59384117  0.33634571  0.60786259  1
  C  C1388  1  0.67770834  0.39305709  0.59051778  1
  C  C1389  1  0.55726331  0.30499260  0.68463762  1
  C  C1390  1  0.56013781  0.35809316  0.61717143  1
  C  C1391  1  0.54073724  0.34087932  0.65348159  1
  C  C1392  1  0.64842816  0.42530533  0.59435338  1
  C  C1393  1  0.63613379  0.44291701  0.63366337  1
  C  C1394  1  0.65375108  0.42659711  0.67099416  1
  H  H1395  1  0.61287522  0.46967370  0.63524929  1
  H  H1396  1  0.68567421  0.38278085  0.55853137  1
  C  C1397  1  0.63209261  0.44810300  0.55601158  1
  H  H1398  1  0.55038001  0.38797073  0.59693354  1
  N  N1399  1  0.53774990  0.42095097  0.51475068  1
  C  C1400  1  0.64056942  0.43893465  0.71144939  1
  C  C1401  1  0.68489140  0.39194130  0.66691664  1
  C  C1402  1  0.69313068  0.37355799  0.62678590  1
  C  C1403  1  0.70236616  0.37897817  0.70420664  1
  O  O1404  1  0.60886395  0.47814656  0.56200722  1
  O  O1405  1  0.64425919  0.43405527  0.51926454  1
  H  H1406  1  0.66594584  0.27476291  0.72254620  1
  H  H1407  1  0.54605643  0.38351889  0.71870121  1
  C  C1408  1  0.51278471  0.44820524  0.53937629  1
  O  O1409  1  0.73699604  0.36515386  0.51832602  1
  H  H1410  1  0.61575119  0.45782250  0.71436882  1
  H  H1411  1  0.71593010  0.34842217  0.61899324  1
  C  C1412  1  0.55641824  0.46165421  0.71078411  1
  C  C1413  1  0.53741610  0.29372206  0.72239289  1
  C  C1414  1  0.73580709  0.25889284  0.69778893  1
  H  H1415  1  0.72514014  0.35310970  0.70482309  1
  H  H1416  1  0.53472123  0.38419749  0.51227816  1
  C  C1417  1  0.68935993  0.39355573  0.74312129  1
  C  C1418  1  0.55286541  0.41938440  0.73379689  1
  H  H1419  1  0.55199762  0.46349211  0.67565130  1
  N  N1420  1  0.51618800  0.49525780  0.54831867  1
  H  H1421  1  0.54909829  0.26651044  0.74550505  1
  C  C1422  1  0.65776107  0.42194510  0.74696657  1
  C  C1423  1  0.50805167  0.36310775  0.66264483  1
  C  C1424  1  0.50500490  0.31798491  0.72998035  1
  C  C1425  1  0.68598380  0.26808021  0.74703755  1
  C  C1426  1  0.72378486  0.25732765  0.73912294  1
  H  H1427  1  0.72889661  0.12405300  0.75726644  1
  N  N1428  1  0.56666205  0.12183467  0.75059353  1
  H  H1429  1  0.51186061  0.22250773  0.80021767  1
  H  H1430  1  0.57677546  0.14891384  0.76904229  1
  O  O1431  1  0.53734151  0.22392137  0.79393485  1
  C  C1432  1  0.53973069  0.04194809  0.95678412  1
  Zn  Zn1433  1  0.59325489  0.07024612  0.78219715  1
  C  C1434  1  0.53822616  0.21379320  0.92981965  1
  N  N1435  1  0.53604607  0.17703394  0.90064201  1
  C  C1436  1  0.68568778  0.03153739  0.88992620  1
  N  N1437  1  0.70626863  0.07291564  0.87926791  1
  N  N1438  1  0.53438385  0.11028862  0.84546784  1
  N  N1439  1  0.59590505  0.10942323  0.83551795  1
  C  C1440  1  0.56735099  0.12251469  0.86179479  1
  N  N1441  1  0.63581042  0.15019859  0.88315921  1
  C  C1442  1  0.60859189  0.17273116  0.90321812  1
  Zn  Zn1443  1  0.69557146  0.14971840  0.90100243  1
  N  N1444  1  0.61871090  0.20470721  0.93600045  1
  H  H1445  1  0.64598192  0.20358408  0.94119685  1
  N  N1446  1  0.70178495  0.12882411  0.96890607  1
  C  C1447  1  0.56983155  0.16409068  0.89371510  1
  C  C1448  1  0.73295473  0.05183077  0.85329141  1
  C  C1449  1  0.62401141  0.12441059  0.85339379  1
  H  H1450  1  0.65759460  0.03183777  0.90400728  1
  O  O1451  1  0.53290476  0.08448448  0.95868410  1
  Zn  Zn1452  1  0.51989126  0.11642223  0.78413984  1
  Zn  Zn1453  1  0.51101265  0.04133735  0.84783443  1
  O  O1454  1  0.61432283  0.02337565  0.92487509  1
  H  H1455  1  0.56697857  0.22042100  0.94245561  1
  O  O1456  1  0.69903620  0.22658319  0.89400428  1
  C  C1457  1  0.73197493  0.13031314  0.99072143  1
  Zn  Zn1458  1  0.60550532  0.20056164  0.99875384  1
  H  H1459  1  0.54564517  0.23901117  0.81858847  1
  C  C1460  1  0.73156059  0.23242739  0.81644883  1
  H  H1461  1  0.74663145  0.21782104  0.84403699  1
  O  O1462  1  0.51077337  0.23670200  0.93655605  1
  C  C1463  1  0.74662145  0.24351033  0.77637912  1
  C  C1464  1  0.69661251  0.24933724  0.82268321  1
  O  O1465  1  0.74427536  0.35310283  0.76798875  1
  H  H1466  1  0.73756807  0.46593758  0.82554036  1
  O  O1467  1  0.71865428  0.42614725  0.98707618  1
  C  C1468  1  0.56042849  0.41967784  0.77966014  1
  C  C1469  1  0.68214640  0.25141677  0.86635646  1
  O  O1470  1  0.58212583  0.33580529  0.90738700  1
  C  C1471  1  0.56757923  0.47187031  0.84741897  1
  O  O1472  1  0.65350709  0.27292068  0.87398616  1
  H  H1473  1  0.71688041  0.44613211  0.96187329  1
  H  H1474  1  0.63739810  0.38707976  0.96304267  1
  C  C1475  1  0.71202512  0.38154489  0.78031176  1
  N  N1476  1  0.65843280  0.49127324  0.95166208  1
  C  C1477  1  0.56707693  0.38455195  0.84805703  1
  O  O1478  1  0.65843731  0.42140390  0.90405439  1
  Zn  Zn1479  1  0.61849009  0.28250387  0.93193030  1
  H  H1480  1  0.64934765  0.28063453  0.80059283  1
  H  H1481  1  0.64763099  0.42910703  0.77921287  1
  C  C1482  1  0.57405858  0.33498384  0.86843717  1
  H  H1483  1  0.56989216  0.42642452  0.90642920  1
  O  O1484  1  0.57328835  0.29523932  0.84952125  1
  H  H1485  1  0.55879309  0.34030945  0.79294579  1
  C  C1486  1  0.65716206  0.46057481  0.91905863  1
  C  C1487  1  0.67502498  0.26840078  0.78968248  1
  O  O1488  1  0.70736266  0.38929952  0.81564090  1
  N  N1489  1  0.62996126  0.32876367  0.99192920  1
  C  C1490  1  0.63998529  0.37500576  0.99524013  1
  C  C1491  1  0.56336900  0.46865766  0.80161040  1
  C  C1492  1  0.56222596  0.37856919  0.80548101  1
  C  C1493  1  0.56791450  0.42961299  0.87125386  1
  H  H1494  1  0.69378501  0.41560574  0.99245524  1
  N  N1495  1  0.67943705  0.66725084  0.04149858  1
  C  C1496  1  0.65586504  0.66737475  0.07486647  1
  N  N1497  1  0.61981004  0.68389070  0.07316344  1
  C  C1498  1  0.61149941  0.68061425  0.11692337  1
  H  H1499  1  0.58389294  0.69168155  0.12844809  1
  C  C1500  1  0.66529451  0.66193948  0.11918236  1
  N  N1501  1  0.63744589  0.67293409  0.14413363  1
  N  N1502  1  0.70660881  0.60005715  0.12268499  1
  N  N1503  1  0.71507190  0.67687177  0.16884461  1
  C  C1504  1  0.70146062  0.64336532  0.14098768  1
  C  C1505  1  0.60891100  0.56369365  0.03728163  1
  N  N1506  1  0.57266523  0.56220178  0.05269436  1
  Zn  Zn1507  1  0.67603716  0.55043280  0.09059146  1
  N  N1508  1  0.63141859  0.53176069  0.05373019  1
  H  H1509  1  0.70172299  0.71154681  0.17322519  1
  Zn  Zn1510  1  0.63886835  0.68341994  0.20932733  1
  N  N1511  1  0.57783306  0.57688846  0.17657422  1
  Zn  Zn1512  1  0.54192569  0.58930597  0.13101808  1
  H  H1513  1  0.60903950  0.56055806  0.13090919  1
  C  C1514  1  0.60871075  0.56295254  0.16597356  1
  H  H1515  1  0.55636545  0.53114882  0.04701999  1
  C  C1516  1  0.63855944  0.55018095  0.19347882  1
  Zn  Zn1517  1  0.73308964  0.68933865  0.04507145  1
  H  H1518  1  0.55750895  0.59151745  0.04286385  1
  C  C1519  1  0.66746616  0.51715126  0.17942141  1
  N  N1520  1  0.70592559  0.52520913  0.04168617  1
  Zn  Zn1521  1  0.59512734  0.72448110  0.02364656  1
  C  C1522  1  0.74189176  0.59858247  0.12766157  1
  C  C1523  1  0.64354922  0.57251869  0.23398157  1
  H  H1524  1  0.73737130  0.67159640  0.18747942  1
  Zn  Zn1525  1  0.69993260  0.59733729  0.01197520  1
  O  O1526  1  0.51378570  0.62498366  0.05315985  1
  C  C1527  1  0.61899058  0.59016874  0.00051609  1
  C  C1528  1  0.69127978  0.51814404  0.23873477  1
  Zn  Zn1529  1  0.56283029  0.58981897  0.23693290  1
  O  O1530  1  0.56050397  0.72957637  0.23121106  1
  C  C1531  1  0.58895394  0.72051958  0.24479376  1
  C  C1532  1  0.50470067  0.60532884  0.08500272  1
  N  N1533  1  0.61992205  0.60794045  0.24803224  1
  C  C1534  1  0.50000674  0.73239106  0.09763264  1
  C  C1535  1  0.73838340  0.50363982  0.04161529  1
  H  H1536  1  0.50542302  0.51697712  0.10472447  1
  N  N1537  1  0.66594928  0.50045925  0.13727914  1
  C  C1538  1  0.53985691  0.75272269  0.09683731  1
  O  O1539  1  0.55648431  0.76122359  0.06344509  1
  O  O1540  1  0.54923094  0.76252191  0.13123444  1
  C  C1541  1  0.55857480  0.92829275  0.11145024  1
  C  C1542  1  0.59521098  0.98240957  0.06221135  1
  H  H1543  1  0.58513254  0.79860954  0.16621638  1
  H  H1544  1  0.59772320  0.80444158  0.09161840  1
  C  C1545  1  0.56429962  0.97348353  0.08930090  1
  C  C1546  1  0.68528823  0.93790813  0.09530512  1
  H  H1547  1  0.70152306  0.85932167  0.08777220  1
  C  C1548  1  0.70245930  0.89646734  0.07555581  1
  H  H1549  1  0.71195936  0.78444207  0.11278341  1
  O  O1550  1  0.63594176  0.78307523  0.03060060  1
  C  C1551  1  0.61895804  0.79681363  0.11567969  1
  C  C1552  1  0.70953751  0.80795895  0.19528678  1
  C  C1553  1  0.64230290  0.80250736  0.18721334  1
  O  O1554  1  0.69419565  0.77447460  0.04234261  1
  C  C1555  1  0.67844113  0.80008493  0.16983282  1
  C  C1556  1  0.68424082  0.79070217  0.12663560  1
  C  C1557  1  0.61280770  0.80119971  0.15743338  1
  C  C1558  1  0.65466410  0.78985070  0.10036363  1
  C  C1559  1  0.66291637  0.78015000  0.05435080  1
  H  H1560  1  0.67320286  0.89502666  0.15305639  1
  C  C1561  1  0.67044515  0.93126779  0.13541380  1
  C  C1562  1  0.71697423  0.90389081  0.03594531  1
  H  H1563  1  0.61569256  0.95490593  0.05639999  1
  O  O1564  1  0.55092860  0.89359699  0.13120451  1
  C  C1565  1  0.63749334  0.81119939  0.23190847  1
  C  C1566  1  0.71989848  0.95159703  0.01851240  1
  H  H1567  1  0.73663459  0.80591892  0.18209844  1
  C  C1568  1  0.65009681  0.97248695  0.14977581  1
  O  O1569  1  0.61145689  0.97080057  0.21855283  1
  C  C1570  1  0.62868480  0.97221030  0.18748386  1
  C  C1571  1  0.68991658  0.98910711  0.07677682  1
  C  C1572  1  0.70699322  0.99380398  0.03771306  1
  C  C1573  1  0.70339873  0.81196302  0.23825020  1
  H  H1574  1  0.61089549  0.81583358  0.24553829  1
  H  H1575  1  0.73237680  0.87553489  0.01863815  1
  C  C1576  1  0.51109265  0.50780294  0.25084450  1
  O  O1577  1  0.51407366  0.55552951  0.25024527  1
  H  H1578  1  0.60961026  0.51574532  0.37392535  1
  H  H1579  1  0.52126573  0.55355099  0.32505693  1
  H  H1580  1  0.53214806  0.51322606  0.39405536  1
  H  H1581  1  0.50060977  0.69918544  0.47772730  1
  C  C1582  1  0.52024033  0.51228878  0.32852443  1
  O  O1583  1  0.73271751  0.51628148  0.39936158  1
  N  N1584  1  0.50469262  0.69981146  0.36454932  1
  H  H1585  1  0.74548594  0.72627598  0.38123334  1
  N  N1586  1  0.66947654  0.55219512  0.25931779  1
  C  C1587  1  0.59214478  0.54016176  0.39436892  1
  O  O1588  1  0.60627211  0.54728072  0.31569465  1
  Zn  Zn1589  1  0.66513159  0.54522531  0.32394217  1
  C  C1590  1  0.72002081  0.55853841  0.39280156  1
  O  O1591  1  0.63872118  0.67092679  0.39039920  1
  O  O1592  1  0.68938639  0.56614549  0.37946080  1
  C  C1593  1  0.58417641  0.57879071  0.32886000  1
  C  C1594  1  0.65504508  0.69702333  0.27659617  1
  O  O1595  1  0.68266980  0.68958859  0.29424736  1
  H  H1596  1  0.70897093  0.65157170  0.36696057  1
  O  O1597  1  0.57098372  0.60851341  0.30484572  1
  C  C1598  1  0.54963238  0.60878289  0.39419394  1
  C  C1599  1  0.54393986  0.59863076  0.43771221  1
  H  H1600  1  0.61932890  0.61994178  0.27913783  1
  H  H1601  1  0.53789907  0.64035613  0.37847285  1
  C  C1602  1  0.57479318  0.57770916  0.37497589  1
  H  H1603  1  0.56939926  0.69011183  0.32885396  1
  N  N1604  1  0.55889734  0.72468092  0.33831444  1
  C  C1605  1  0.65425144  0.65084904  0.41743708  1
  C  C1606  1  0.74177167  0.60371081  0.40537413  1
  C  C1607  1  0.73083599  0.65044092  0.38924867  1
  C  C1608  1  0.67306079  0.62509126  0.45126825  1
  C  C1609  1  0.58880163  0.52668626  0.43824654  1
  H  H1610  1  0.70990698  0.68769142  0.46062137  1
  C  C1611  1  0.61799147  0.71823394  0.27504506  1
  H  H1612  1  0.65330596  0.55038913  0.43798164  1
  C  C1613  1  0.66618153  0.57288213  0.46219936  1
  C  C1614  1  0.52758779  0.73617834  0.35679905  1
  H  H1615  1  0.52665137  0.62231771  0.45522742  1
  C  C1616  1  0.56230691  0.55885532  0.45612652  1
  C  C1617  1  0.69937565  0.65166840  0.47484290  1
  H  H1618  1  0.56866999  0.67539266  0.46592357  1
  H  H1619  1  0.63179459  0.70666806  0.46038453  1
  C  C1620  1  0.56018473  0.71038560  0.47864562  1
  C  C1621  1  0.52371816  0.72348534  0.48477031  1
  C  C1622  1  0.62282570  0.74060145  0.47859059  1
  C  C1623  1  0.58615579  0.74688880  0.48724524  1
  C  C1624  1  0.67748356  0.55482595  0.49987629  1
  C  C1625  1  0.53344180  0.96225601  0.48434698  1
  C  C1626  1  0.51543600  0.77133902  0.49648718  1
  H  H1627  1  0.59819238  0.98668971  0.41147403  1
  O  O1628  1  0.68592834  0.76004271  0.47685285  1
  C  C1629  1  0.65148140  0.77231298  0.48658880  1
  H  H1630  1  0.65340049  0.95864353  0.48903375  1
  O  O1631  1  0.68895283  0.84048696  0.32518652  1
  C  C1632  1  0.58664768  0.98598972  0.44330621  1
  O  O1633  1  0.64174522  0.97173086  0.32510736  1
  O  O1634  1  0.72343117  0.92131499  0.43029229  1
  N  N1635  1  0.52753593  0.83111036  0.36932444  1
  C  C1636  1  0.71436888  0.96184301  0.33663879  1
  H  H1637  1  0.72768486  0.81454516  0.25623614  1
  H  H1638  1  0.69843295  0.79067831  0.48659620  1
  Zn  Zn1639  1  0.60421390  0.76131423  0.32876996  1
  O  O1640  1  0.63216690  0.83049653  0.31682320  1
  C  C1641  1  0.66891125  0.81459011  0.25418062  1
  C  C1642  1  0.55413002  0.95899715  0.44896582  1
  H  H1643  1  0.50111852  0.83514960  0.30362070  1
  O  O1644  1  0.51164944  0.89548782  0.42472121  1
  C  C1645  1  0.66426382  0.82960912  0.30409850  1
  H  H1646  1  0.62369996  0.97471479  0.30366706  1
  O  O1647  1  0.54486422  0.93189248  0.37655760  1
  C  C1648  1  0.51703354  0.78549067  0.36941992  1
  H  H1649  1  0.69661492  0.93105131  0.34496186  1
  C  C1650  1  0.71155712  0.91201373  0.46336231  1
  C  C1651  1  0.53640344  0.92893587  0.41234864  1
  H  H1652  1  0.74918116  0.99537969  0.41505990  1
  H  H1653  1  0.50812515  0.94021884  0.48474486  1
  C  C1654  1  0.54931369  0.67322184  0.58719749  1
  C  C1655  1  0.51712931  0.64777891  0.58169247  1
  H  H1656  1  0.57377198  0.65482868  0.59304504  1
  C  C1657  1  0.69793749  0.58505186  0.52806651  1
  C  C1658  1  0.70501408  0.56066235  0.56722654  1
  O  O1659  1  0.61646271  0.61427081  0.61128482  1
  C  C1660  1  0.64535257  0.64824063  0.61747971  1
  C  C1661  1  0.66332099  0.66185397  0.65291034  1
  C  C1662  1  0.65797208  0.67011097  0.57981930  1
  H  H1663  1  0.61566970  0.59926032  0.63893929  1
  C  C1664  1  0.69262344  0.69551661  0.65568868  1
  H  H1665  1  0.65119866  0.64624601  0.68227653  1
  O  O1666  1  0.54708242  0.57254585  0.57705808  1
  C  C1667  1  0.51787601  0.59364093  0.58089640  1
  H  H1668  1  0.68971123  0.52692983  0.57580765  1
  C  C1669  1  0.71352636  0.63133200  0.51126038  1
  H  H1670  1  0.69546065  0.71064823  0.72340823  1
  O  O1671  1  0.57735811  0.59227246  0.69480122  1
  C  C1672  1  0.70837834  0.71698624  0.69291777  1
  C  C1673  1  0.57187556  0.55389729  0.70974105  1
  C  C1674  1  0.55193775  0.72421443  0.59006186  1
  H  H1675  1  0.64663502  0.65938258  0.54881568  1
  C  C1676  1  0.68697821  0.70066991  0.57685934  1
  C  C1677  1  0.70600803  0.71385616  0.61510216  1
  Zn  Zn1678  1  0.56544088  0.53751189  0.51863640  1
  C  C1679  1  0.72870344  0.58714568  0.59236487  1
  H  H1680  1  0.66969056  0.51882406  0.50974866  1
  C  C1681  1  0.74085255  0.65131172  0.53810155  1
  H  H1682  1  0.69585064  0.71108338  0.54546469  1
  H  H1683  1  0.60978665  0.73421421  0.60049569  1
  C  C1684  1  0.56387122  0.50868539  0.73261074  1
  O  O1685  1  0.72559783  0.52611316  0.64726161  1
  C  C1686  1  0.73643591  0.74323764  0.61161394  1
  C  C1687  1  0.73928947  0.74518964  0.69045769  1
  C  C1688  1  0.73443514  0.56792518  0.63719315  1
  C  C1689  1  0.74598584  0.63043225  0.57817090  1
  C  C1690  1  0.51689052  0.75103281  0.59013090  1
  C  C1691  1  0.58419676  0.75208435  0.59454367  1
  H  H1692  1  0.70564921  0.98634200  0.50625667  1
  C  C1693  1  0.51511769  0.80330102  0.59281158  1
  C  C1694  1  0.58106723  0.80344426  0.59921582  1
  H  H1695  1  0.60443994  0.82572748  0.59648912  1
  C  C1696  1  0.54666734  0.82891838  0.60010727  1
  H  H1697  1  0.71204577  0.82035046  0.67447011  1
  C  C1698  1  0.54007397  0.88363073  0.59800554  1
  C  C1699  1  0.64782387  0.89011943  0.62362873  1
  C  C1700  1  0.66328572  0.89612066  0.58283078  1
  H  H1701  1  0.62295066  0.90777082  0.63392700  1
  C  C1702  1  0.69722601  0.87002583  0.57196603  1
  C  C1703  1  0.66497248  0.86316642  0.65500823  1
  O  O1704  1  0.57231599  0.91312329  0.59638572  1
  N  N1705  1  0.55630052  0.95096655  0.68448565  1
  C  C1706  1  0.64824226  0.85993062  0.69847755  1
  C  C1707  1  0.69888431  0.84203795  0.64830296  1
  O  O1708  1  0.62597086  0.89141696  0.70799145  1
  O  O1709  1  0.65885343  0.82871900  0.72386195  1
  H  H1710  1  0.56427987  0.93891527  0.61734515  1
  C  C1711  1  0.71231931  0.84603772  0.60766637  1
  H  H1712  1  0.62415277  0.94675806  0.55968423  1
  C  C1713  1  0.64796451  0.92622997  0.55090327  1
  C  C1714  1  0.71464815  0.86559316  0.53131055  1
  C  C1715  1  0.52409473  0.95982469  0.70201762  1
  C  C1716  1  0.66400836  0.93194543  0.51209435  1
  O  O1717  1  0.51217904  0.90416657  0.59814858  1
  O  O1718  1  0.73970519  0.84096964  0.51988339  1
  H  H1719  1  0.73826646  0.83223320  0.59875309  1
  H  H1720  1  0.71887721  0.98359559  0.58075860  1
  C  C1721  1  0.54487236  0.99426880  0.51719019  1
  H  H1722  1  0.60701247  0.97603027  0.70468852  1
  C  C1723  1  0.57778998  0.98210158  0.70525160  1
  N  N1724  1  0.66949590  0.97634470  0.74542898  1
  H  H1725  1  0.53956845  0.89112094  0.72440137  1
  C  C1726  1  0.53974082  0.80629687  0.50797991  1
  H  H1727  1  0.53256534  0.84229691  0.52040435  1
  C  C1728  1  0.60477165  0.82997447  0.51377328  1
  H  H1729  1  0.60114877  0.86716337  0.52960093  1
  H  H1730  1  0.51402810  0.86336527  0.74690911  1
  O  O1731  1  0.53831566  0.85948968  0.73776360  1
  C  C1732  1  0.64064610  0.81740298  0.50469620  1
  H  H1733  1  0.66002174  0.84677909  0.51046517  1
  H  H1734  1  0.74723999  0.75315362  0.58176010  1
  O  O1735  1  0.74817045  0.91550553  0.74982540  1
  C  C1736  1  0.57779020  0.79502447  0.50597921  1
  C  C1737  1  0.69423876  0.90385423  0.50234066  1
  H  H1738  1  0.57115701  0.50772462  0.86217023  1
  O  O1739  1  0.74168545  0.50380233  0.82030241  1
  C  C1740  1  0.74355798  0.72325918  0.78800513  1
  C  C1741  1  0.51499351  0.58018954  0.97316471  1
  O  O1742  1  0.68324225  0.63114630  0.80768272  1
  C  C1743  1  0.56383915  0.51182907  0.77774800  1
  O  O1744  1  0.54950345  0.60492148  0.84545254  1
  H  H1745  1  0.56846262  0.55008926  0.79085582  1
  C  C1746  1  0.52359106  0.66223018  0.94475635  1
  C  C1747  1  0.69688362  0.66715547  0.79568304  1
  N  N1748  1  0.64737679  0.68483970  0.89313905  1
  H  H1749  1  0.62725357  0.66547832  0.90740599  1
  N  N1750  1  0.64911545  0.57340513  0.91685409  1
  C  C1751  1  0.65498920  0.52843858  0.92539271  1
  Zn  Zn1752  1  0.68425192  0.63616094  0.90098027  1
  C  C1753  1  0.53568186  0.62209514  0.96824438  1
  C  C1754  1  0.63133454  0.57730720  0.95690264  1
  H  H1755  1  0.60691670  0.71969758  0.85356059  1
  C  C1756  1  0.54993073  0.70555033  0.94430772  1
  H  H1757  1  0.68251387  0.70371886  0.79597153  1
  O  O1758  1  0.58010614  0.59361100  0.85776515  1
  N  N1759  1  0.73414727  0.65283190  0.91673773  1
  C  C1760  1  0.65241371  0.73571821  0.90272236  1
  N  N1761  1  0.73362503  0.67453877  0.78822504  1
  N  N1762  1  0.66575870  0.73998185  0.94200679  1
  O  O1763  1  0.57809249  0.70163278  0.96645591  1
  N  N1764  1  0.72115130  0.66152185  0.98600039  1
  Zn  Zn1765  1  0.66511499  0.68092283  0.98160107  1
  N  N1766  1  0.65034276  0.60585279  0.98504861  1
  H  H1767  1  0.56468146  0.62048932  0.97722755  1
  H  H1768  1  0.52727890  0.54467582  0.98318140  1
  N  N1769  1  0.74710819  0.56125522  0.98498869  1
  O  O1770  1  0.54101809  0.74352084  0.92667826  1
  C  C1771  1  0.74799415  0.65828848  0.95717529  1
  O  O1772  1  0.59115307  0.74559263  0.79680465  1
  O  O1773  1  0.73729141  0.51612150  0.92046462  1
  C  C1774  1  0.57564791  0.95633177  0.94272604  1
  O  O1775  1  0.50698329  0.90937108  0.85478415  1
  H  H1776  1  0.60846619  0.89980386  0.75464902  1
  C  C1777  1  0.60430757  0.75079120  0.83024021  1
  N  N1778  1  0.67263615  0.90588273  0.80230717  1
  C  C1779  1  0.54885252  0.99314961  0.95279970  1
  O  O1780  1  0.63961762  0.95242828  0.92659751  1
  C  C1781  1  0.66916831  0.82255512  0.89538778  1
  N  N1782  1  0.67933682  0.82950870  0.93554735  1
  C  C1783  1  0.63958379  0.97891356  0.77001643  1
  Zn  Zn1784  1  0.71497219  0.86706678  0.81931598  1
  N  N1785  1  0.62563891  0.78737278  0.84517575  1
  N  N1786  1  0.59795918  0.90426970  0.78584558  1
  C  C1787  1  0.72727565  0.99665730  0.85416144  1
  C  C1788  1  0.64324878  0.77954075  0.88081309  1
  H  H1789  1  0.67420052  0.79107120  0.81633853  1
  C  C1790  1  0.56523992  0.95989323  0.83117410  1
  Zn  Zn1791  1  0.51584961  0.93354148  0.95837928  1
  C  C1792  1  0.66868235  0.94040779  0.77455720  1
  N  N1793  1  0.68557533  0.77438087  0.78934901  1
  N  N1794  1  0.74347854  0.81028711  0.79525909  1
  H  H1795  1  0.57404852  0.88265065  0.78848808  1
  C  C1796  1  0.61265218  0.97944558  0.93117645  1
  N  N1797  1  0.67272806  0.85756919  0.86579948  1
  N  N1798  1  0.61212362  0.99636089  0.79311801  1
  C  C1799  1  0.59177727  0.95480880  0.80120734  1
  Zn  Zn1800  1  0.63629427  0.84820803  0.81276299  1
  N  N1801  1  0.54361544  0.97729046  0.85962109  1
  C  C1802  1  0.57006071  0.90227947  0.94938866  1
  O  O1803  1  0.57860601  0.86119401  0.94857248  1
  N  N1804  1  0.69650775  0.98866185  0.87471140  1
  C  C1805  1  0.73964116  0.95774157  0.97706297  1
  C  C1806  1  0.67686502  0.78580655  0.95405645  1
  C  C1807  1  0.53427370  0.92966325  0.85268814  1
  C  C1808  1  0.72526211  0.76891414  0.78884859  1
  H  H1809  1  0.67446888  0.78900748  0.76087762  1
  H  H1810  1  0.73932560  0.88177011  0.75884075  1
  Zn  Zn1811  1  0.66415181  0.92558616  0.86906135  1
  H  H1812  1  0.68444077  0.78654263  0.98776070  1
  O  O1813  1  0.74977208  0.91788704  0.95750299  1
  O  O1814  1  0.74680960  0.99714380  0.96342422  1
  C  C1815  1  0.89881363  0.05173483  0.09375228  1
  C  C1816  1  0.96483136  0.07632410  0.05304336  1
  O  O1817  1  0.81577074  0.19744331  0.14391961  1
  H  H1818  1  0.87899305  0.20156586  0.09242306  1
  C  C1819  1  0.89253590  0.21604108  0.06379567  1
  O  O1820  1  0.86210605  0.23145902  0.17632679  1
  C  C1821  1  0.83829465  0.23295101  0.15061720  1
  Zn  Zn1822  1  0.77641686  0.17552831  0.09349527  1
  C  C1823  1  0.93011598  0.10393564  0.04285045  1
  H  H1824  1  0.87363626  0.10902212  0.05853667  1
  C  C1825  1  0.89885051  0.08894127  0.06346264  1
  C  C1826  1  0.96283126  0.03380043  0.07950794  1
  O  O1827  1  0.83079871  0.15641812  0.03861740  1
  H  H1828  1  0.81497382  0.14039652  0.01773742  1
  C  C1829  1  0.92796945  0.14348579  0.01436238  1
  C  C1830  1  0.87596474  0.22206054  0.02361989  1
  C  C1831  1  0.92573471  0.23628128  0.06283456  1
  C  C1832  1  0.84277579  0.19750218  0.01036722  1
  C  C1833  1  0.99649901  0.09053545  0.03219680  1
  O  O1834  1  0.83702364  0.07048802  0.11419726  1
  O  O1835  1  0.76851650  0.08941374  0.17808675  1
  C  C1836  1  0.86830444  0.04065449  0.12256466  1
  H  H1837  1  0.82163581  0.06234800  0.13715942  1
  C  C1838  1  0.93092043  0.02497111  0.10026406  1
  H  H1839  1  0.90362569  0.16597052  0.00895723  1
  N  N1840  1  0.76470394  0.13133986  0.00484543  1
  H  H1841  1  0.98726060  0.01058414  0.08581846  1
  C  C1842  1  0.99322735  0.12919001  0.00257734  1
  C  C1843  1  0.75174838  0.12232577  0.19018518  1
  C  C1844  1  0.75059717  0.14793285  0.03882561  1
  H  H1845  1  0.99381027  0.01310559  0.17072598  1
  O  O1846  1  0.86688368  0.00689979  0.14650867  1
  Zn  Zn1847  1  0.97176537  0.25781583  0.09127704  1
  C  C1848  1  0.94643920  0.26173031  0.03057196  1
  H  H1849  1  0.78958723  0.26176478  0.08699856  1
  C  C1850  1  0.84003737  0.27902609  0.12135443  1
  H  H1851  1  0.88765060  0.30700744  0.15228672  1
  C  C1852  1  0.98517504  0.26425568  0.02985929  1
  C  C1853  1  0.81299289  0.28460216  0.09184880  1
  C  C1854  1  0.87007529  0.30966730  0.12535849  1
  C  C1855  1  0.77596253  0.44971238  0.06293594  1
  N  N1856  1  0.80284996  0.45934330  0.03647571  1
  H  H1857  1  0.78106613  0.41786038  0.08282804  1
  C  C1858  1  0.87290810  0.34791819  0.09637629  1
  H  H1859  1  0.89843746  0.37083513  0.09807510  1
  C  C1860  1  0.84529820  0.35443977  0.06768186  1
  C  C1861  1  0.81433770  0.32603472  0.06534587  1
  H  H1862  1  0.98172420  0.40235813  0.04781797  1
  Zn  Zn1863  1  0.85022721  0.41128315  0.02871534  1
  O  O1864  1  0.94915145  0.35670960  0.15598526  1
  H  H1865  1  0.91232550  0.39434725  0.02986684  1
  C  C1866  1  0.95585942  0.37277284  0.12661443  1
  C  C1867  1  0.78090144  0.33337931  0.03925588  1
  C  C1868  1  0.98639357  0.38914664  0.01631532  1
  H  H1869  1  0.78018541  0.36107917  0.01332490  1
  C  C1870  1  0.79848129  0.49691320  0.00980702  1
  C  C1871  1  0.95706248  0.49271946  0.01528972  1
  H  H1872  1  0.99513655  0.28899664  0.00439419  1
  O  O1873  1  0.75152938  0.31675483  0.04282532  1
  C  C1874  1  0.92184811  0.49582922  0.00113247  1
  H  H1875  1  0.77423008  0.10415993  0.27243279  1
  H  H1876  1  0.76033473  0.21510009  0.30358250  1
  C  C1877  1  0.76364526  0.03264520  0.30375109  1
  H  H1878  1  0.77488455  0.12568261  0.47405438  1
  C  C1879  1  0.75979655  0.15972080  0.33760122  1
  C  C1880  1  0.76858047  0.08230928  0.38135536  1
  O  O1881  1  0.77494192  0.20691901  0.32727723  1
  C  C1882  1  0.78940380  0.05284044  0.40766331  1
  C  C1883  1  0.78600727  0.07035910  0.28577615  1
  H  H1884  1  0.84092776  0.08873054  0.27451468  1
  C  C1885  1  0.78153716  0.12729846  0.36760684  1
  H  H1886  1  0.80494681  0.04533999  0.47756026  1
  C  C1887  1  0.82901168  0.06746977  0.41435066  1
  C  C1888  1  0.82290175  0.06073367  0.28848450  1
  O  O1889  1  0.90252224  0.04368708  0.29972595  1
  H  H1890  1  0.86860691  0.12684075  0.40355368  1
  C  C1891  1  0.84137394  0.11394769  0.39911936  1
  C  C1892  1  0.81657352  0.14377072  0.37787749  1
  H  H1893  1  0.82427881  0.18058232  0.36543427  1
  H  H1894  1  0.88276589  0.04634147  0.44013294  1
  C  C1895  1  0.85329086  0.03683533  0.43497801  1
  O  O1896  1  0.93116068  0.10768455  0.49457741  1
  C  C1897  1  0.83715974  0.02092109  0.31211834  1
  C  C1898  1  0.87990632  0.01638202  0.31464118  1
  C  C1899  1  0.77568431  0.00748972  0.42197607  1
  C  C1900  1  0.81460277  0.42605816  0.48684303  1
  O  O1901  1  0.79213024  0.34092675  0.36730046  1
  H  H1902  1  0.95895405  0.41378160  0.49763432  1
  H  H1903  1  0.94391288  0.46672066  0.43284091  1
  H  H1904  1  0.75052247  0.34174192  0.30513145  1
  C  C1905  1  0.97262849  0.46094345  0.44375122  1
  C  C1906  1  0.77196317  0.31450271  0.38593479  1
  C  C1907  1  0.98114154  0.43246906  0.47931438  1
  Zn  Zn1908  1  0.77468163  0.43234315  0.43930908  1
  O  O1909  1  0.77458318  0.30165999  0.42431379  1
  C  C1910  1  0.78627988  0.40591591  0.49633112  1
  N  N1911  1  0.87957414  0.12936668  0.57770214  1
  C  C1912  1  0.84803000  0.14991531  0.56273102  1
  C  C1913  1  0.91093190  0.15485532  0.57281357  1
  N  N1914  1  0.94353035  0.14075396  0.58795832  1
  H  H1915  1  0.95373891  0.11313173  0.60771758  1
  Zn  Zn1916  1  0.88475656  0.07003319  0.61127256  1
  H  H1917  1  0.82252708  0.13016978  0.56412845  1
  H  H1918  1  0.94306262  0.06388207  0.57549827  1
  C  C1919  1  0.82976186  0.05860181  0.67850991  1
  N  N1920  1  0.85990941  0.08455367  0.66425242  1
  C  C1921  1  0.90538110  0.20552075  0.55647204  1
  N  N1922  1  0.83793785  0.19420616  0.55410424  1
  H  H1923  1  0.96759600  0.16342224  0.58002770  1
  N  N1924  1  0.95286039  0.04008860  0.55450247  1
  N  N1925  1  0.81752096  0.01236735  0.67381827  1
  C  C1926  1  0.78642764  0.01057215  0.69403848  1
  C  C1927  1  0.85926758  0.13028118  0.68151713  1
  H  H1928  1  0.87898947  0.15893335  0.67223002  1
  C  C1929  1  0.86590683  0.22273366  0.55605893  1
  O  O1930  1  0.95636210  0.05503167  0.64307601  1
  H  H1931  1  0.97765881  0.05103421  0.54655591  1
  C  C1932  1  0.76972370  0.03410862  0.59478710  1
  H  H1933  1  0.76326725  0.02635981  0.62832237  1
  C  C1934  1  0.80933134  0.09920380  0.70271642  1
  N  N1935  1  0.76312595  0.04245796  0.71158881  1
  N  N1936  1  0.82927122  0.14024635  0.70291592  1
  C  C1937  1  0.77337456  0.08903303  0.71998161  1
  O  O1938  1  0.91954667  0.20002238  0.66033178  1
  C  C1939  1  0.76978383  0.08186847  0.57702824  1
  C  C1940  1  0.77671828  0.08312215  0.53108275  1
  H  H1941  1  0.92979258  0.19887954  0.63234123  1
  H  H1942  1  0.96161540  0.01879858  0.64406883  1
  H  H1943  1  0.94344324  0.20190141  0.67437156  1
  C  C1944  1  0.75476960  0.12621436  0.59574865  1
  H  H1945  1  0.91889265  0.11171785  0.51875906  1
  Zn  Zn1946  1  0.98563406  0.23380115  0.56195377  1
  C  C1947  1  0.76936389  0.12565634  0.50817604  1
  H  H1948  1  0.83035462  0.22270944  0.62037532  1
  H  H1949  1  0.82503172  0.23872095  0.72223753  1
  H  H1950  1  0.76214001  0.15853437  0.74380205  1
  C  C1951  1  0.98790202  0.07197161  0.66455913  1
  C  C1952  1  0.75147721  0.16401317  0.52711890  1
  C  C1953  1  0.79695667  0.24079047  0.72772326  1
  H  H1954  1  0.95545911  0.11163850  0.50446317  1
  N  N1955  1  0.93000624  0.24098119  0.55524590  1
  O  O1956  1  0.82524463  0.23240463  0.64956592  1
  C  C1957  1  0.79199580  0.04187706  0.50872333  1
  C  C1958  1  0.78859199  0.24738457  0.65169004  1
  C  C1959  1  0.77264131  0.24899041  0.69456641  1
  O  O1960  1  0.99542398  0.11459932  0.66346978  1
  N  N1961  1  0.75247983  0.12393022  0.74114750  1
  C  C1962  1  0.99657262  0.34680319  0.70887269  1
  N  N1963  1  0.99258381  0.38903707  0.73214360  1
  O  O1964  1  0.77239861  0.26128409  0.62207910  1
  C  C1965  1  0.76320111  0.38542605  0.53245259  1
  N  N1966  1  0.87080976  0.27198568  0.55708310  1
  O  O1967  1  0.77236486  0.38787411  0.56958806  1
  C  C1968  1  0.90854760  0.28294385  0.55952203  1
  O  O1969  1  0.91956728  0.32640782  0.56489574  1
  C  C1970  1  0.89981256  0.30633716  0.70596301  1
  C  C1971  1  0.88025756  0.34173178  0.68345584  1
  H  H1972  1  0.86931756  0.29621119  0.62389799  1
  C  C1973  1  0.86654042  0.33393230  0.64017632  1
  C  C1974  1  0.86543586  0.37537362  0.61325104  1
  C  C1975  1  0.86178247  0.42255985  0.63209719  1
  C  C1976  1  0.87848095  0.39175440  0.70168028  1
  H  H1977  1  0.90843166  0.27092276  0.69053700  1
  C  C1978  1  0.86744389  0.42980789  0.67356629  1
  N  N1979  1  0.97018589  0.36448959  0.63140033  1
  Zn  Zn1980  1  0.83068167  0.33819373  0.57441393  1
  H  H1981  1  0.85105939  0.45531257  0.61512472  1
  C  C1982  1  0.88630820  0.37219877  0.57083892  1
  H  H1983  1  0.86246178  0.46810119  0.68722567  1
  O  O1984  1  0.88933680  0.40135179  0.54415245  1
  C  C1985  1  0.97976556  0.31584907  0.62983340  1
  C  C1986  1  0.98376508  0.34981562  0.66629238  1
  Zn  Zn1987  1  0.98007760  0.42492470  0.59355132  1
  H  H1988  1  0.97573634  0.41510870  0.71765459  1
  H  H1989  1  0.92719463  0.46132035  0.66577238  1
  N  N1990  1  0.98773873  0.26774967  0.62101375  1
  C  C1991  1  0.88492588  0.39937469  0.74536654  1
  C  C1992  1  0.98726772  0.48057856  0.67036559  1
  O  O1993  1  0.99334812  0.37495352  0.55162427  1
  N  N1994  1  0.94964210  0.48046359  0.67699166  1
  C  C1995  1  0.90972724  0.31422469  0.74784219  1
  H  H1996  1  0.83924431  0.43766483  0.50514240  1
  H  H1997  1  0.75763341  0.10681076  0.89353458  1
  O  O1998  1  0.75761702  0.14002438  0.90360550  1
  C  C1999  1  0.99918528  0.02917188  0.92975024  1
  H  H2000  1  0.76398275  0.13530010  0.93396135  1
  N  N2001  1  0.76060888  0.07132189  0.83478204  1
  H  H2002  1  0.94866097  0.04168430  0.98973522  1
  C  C2003  1  0.93897100  0.04186354  0.95770990  1
  H  H2004  1  0.88499271  0.05941329  0.97857452  1
  C  C2005  1  0.96752889  0.20535021  0.79705815  1
  H  H2006  1  0.94270182  0.13708643  0.92905061  1
  C  C2007  1  0.84854454  0.06756519  0.90355636  1
  H  H2008  1  0.81404828  0.08484697  0.86335922  1
  C  C2009  1  0.77828157  0.03557069  0.81598820  1
  H  H2010  1  0.96290843  0.03863165  0.81243691  1
  C  C2011  1  0.96297411  0.04215376  0.92302201  1
  O  O2012  1  0.84005373  0.07737531  0.86243643  1
  C  C2013  1  0.88795712  0.05731265  0.91137368  1
  H  H2014  1  0.89949059  0.06444034  0.84425595  1
  C  C2015  1  0.91000840  0.05722325  0.87658851  1
  C  C2016  1  0.94682175  0.04656176  0.87873698  1
  H  H2017  1  0.79665163  0.05865781  0.79676713  1
  C  C2018  1  0.97160508  0.03798073  0.84577039  1
  C  C2019  1  0.94440793  0.19658610  0.83499312  1
  O  O2020  1  0.82545102  0.06471092  0.92865780  1
  H  H2021  1  0.96380787  0.18489411  0.97032353  1
  C  C2022  1  0.95902222  0.16719200  0.86930379  1
  C  C2023  1  0.93435661  0.16375562  0.90410269  1
  C  C2024  1  0.91159591  0.22099267  0.83641008  1
  C  C2025  1  0.90285343  0.05423606  0.95160046  1
  C  C2026  1  0.89065866  0.21979314  0.87361315  1
  C  C2027  1  0.90032468  0.18506556  0.90736236  1
  H  H2028  1  0.87920892  0.17470183  0.93295172  1
  C  C2029  1  0.99473497  0.15112759  0.86909517  1
  O  O2030  1  0.82768200  0.20444078  0.97799504  1
  C  C2031  1  0.96093671  0.15534474  0.99588834  1
  H  H2032  1  0.80090796  0.22991959  0.79550850  1
  C  C2033  1  0.78391485  0.23816562  0.76826866  1
  O  O2034  1  0.95800018  0.22750250  0.76562482  1
  C  C2035  1  0.85386047  0.24027146  0.87387120  1
  H  H2036  1  0.90138603  0.24317973  0.80897974  1
  H  H2037  1  0.88116690  0.43355692  0.76094061  1
  H  H2038  1  0.85650049  0.46274744  0.89499010  1
  H  H2039  1  0.79653805  0.47175731  0.82523396  1
  C  C2040  1  0.88883468  0.25612644  0.99282795  1
  O  O2041  1  0.82618652  0.25985641  0.87451569  1
  H  H2042  1  0.87249200  0.26806842  0.96589053  1
  C  C2043  1  0.96799295  0.35991020  0.94739449  1
  H  H2044  1  0.97902970  0.48295118  0.99458515  1
  O  O2045  1  0.90417241  0.40646115  0.82908022  1
  C  C2046  1  0.90558313  0.35608213  0.92328008  1
  H  H2047  1  0.92357278  0.28468180  0.76495911  1
  H  H2048  1  0.84540259  0.48896126  0.97047077  1
  H  H2049  1  0.94547361  0.32852382  0.88617242  1
  N  N2050  1  0.98607504  0.43703760  0.85550969  1
  C  C2051  1  0.89542609  0.37835011  0.96378534  1
  C  C2052  1  0.92262920  0.27408115  0.99710533  1
  H  H2053  1  0.75265301  0.34378471  0.79668322  1
  H  H2054  1  0.88589434  0.34134961  0.90192810  1
  O  O2055  1  0.92130211  0.33136964  0.83271351  1
  C  C2056  1  0.90875267  0.36626247  0.81304944  1
  Zn  Zn2057  1  0.93401199  0.46215163  0.86495875  1
  C  C2058  1  0.91978622  0.38471015  0.99823996  1
  O  O2059  1  0.93974211  0.48024601  0.93116633  1
  C  C2060  1  0.89928997  0.35949982  0.76651700  1
  C  C2061  1  0.94048937  0.34763881  0.91648079  1
  C  C2062  1  0.99465283  0.40016850  0.82770058  1
  C  C2063  1  0.91228399  0.48603940  0.95538227  1
  N  N2064  1  0.84462787  0.47764467  0.86809606  1
  H  H2065  1  0.93501236  0.29578290  0.97041403  1
  O  O2066  1  0.83111879  0.37211705  0.94312760  1
  C  C2067  1  0.85569089  0.38261944  0.96491008  1
  H  H2068  1  0.97122336  0.38487688  0.81103000  1
  O  O2069  1  0.88166037  0.48374108  0.94082926  1
  C  C2070  1  0.95699571  0.37918925  0.98849318  1
  N  N2071  1  0.89307275  0.49651507  0.82291585  1
  H  H2072  1  0.81903294  0.48565053  0.87514260  1
  H  H2073  1  0.98525838  0.48614544  0.92570794  1
  C  C2074  1  0.85656232  0.49935231  0.83139929  1
  C  C2075  1  0.88289979  0.66546092  0.08305516  1
  C  C2076  1  0.87945299  0.64018303  0.04178997  1
  O  O2077  1  0.90133109  0.61487558  0.02685477  1
  C  C2078  1  0.81604109  0.66146711  0.02979827  1
  H  H2079  1  0.80917449  0.66531517  0.06398479  1
  C  C2080  1  0.90714951  0.64156775  0.10863083  1
  H  H2081  1  0.92363441  0.61254737  0.09513472  1
  N  N2082  1  0.78645800  0.67435028  0.01283332  1
  C  C2083  1  0.91525159  0.66390068  0.14851683  1
  C  C2084  1  0.89403377  0.70641894  0.16414802  1
  C  C2085  1  0.86170097  0.70696465  0.09714528  1
  H  H2086  1  0.95872592  0.61952657  0.16612508  1
  C  C2087  1  0.94329766  0.65179193  0.17667566  1
  H  H2088  1  0.78604187  0.71728268  0.16421140  1
  C  C2089  1  0.94808256  0.67703677  0.21464086  1
  C  C2090  1  0.92698960  0.71724026  0.22755012  1
  H  H2091  1  0.97188700  0.66966114  0.23558224  1
  H  H2092  1  0.84339284  0.72714669  0.07663237  1
  C  C2093  1  0.86643564  0.72534716  0.13757664  1
  O  O2094  1  0.76891199  0.71730290  0.08770575  1
  O  O2095  1  0.84724510  0.64913661  0.01434834  1
  C  C2096  1  0.97805654  0.72223429  0.10767342  1
  C  C2097  1  0.98063979  0.71163643  0.06317580  1
  H  H2098  1  0.87462466  0.51625034  0.09524566  1
  H  H2099  1  0.92370195  0.50555069  0.15788180  1
  O  O2100  1  0.96832274  0.51215986  0.22017611  1
  C  C2101  1  0.94384365  0.50747680  0.13395334  1
  C  C2102  1  0.99038901  0.50760776  0.19298469  1
  C  C2103  1  0.89757329  0.73175792  0.20355207  1
  H  H2104  1  0.99265732  0.70000524  0.13139141  1
  C  C2105  1  0.76317151  0.52120971  0.00441237  1
  H  H2106  1  0.80472907  0.70750076  0.23858502  1
  C  C2107  1  0.80588957  0.74689019  0.24143457  1
  C  C2108  1  0.89898718  0.50955657  0.07598048  1
  C  C2109  1  0.93440633  0.50213878  0.09094006  1
  H  H2110  1  0.86959528  0.51013080  0.02076702  1
  C  C2111  1  0.89603837  0.50423878  0.03381299  1
  C  C2112  1  0.95618751  0.73975798  0.03588488  1
  C  C2113  1  0.99962244  0.50331453  0.07409221  1
  O  O2114  1  0.77096479  0.58448366  0.12247649  1
  C  C2115  1  0.96388149  0.50036530  0.05815137  1
  C  C2116  1  0.97849213  0.50692937  0.14686391  1
  C  C2117  1  0.99923121  0.66665078  0.00154840  1
  C  C2118  1  0.79180918  0.75730981  0.16754157  1
  O  O2119  1  0.99747896  0.88101136  0.01586077  1
  C  C2120  1  0.78041860  0.76267203  0.09166913  1
  C  C2121  1  0.80150118  0.77742770  0.20661542  1
  H  H2122  1  0.87966234  0.75983995  0.21516899  1
  H  H2123  1  0.85091680  0.75598824  0.14735469  1
  H  H2124  1  0.95273647  0.75723857  0.15784231  1
  C  C2125  1  0.95426159  0.75501383  0.12293094  1
  C  C2126  1  0.98213178  0.97532553  0.16989615  1
  O  O2127  1  0.78204049  0.78931679  0.06218577  1
  C  C2128  1  0.78977856  0.78762870  0.13312244  1
  C  C2129  1  0.92835312  0.78389222  0.09747374  1
  H  H2130  1  0.78985529  0.86382897  0.10571099  1
  O  O2131  1  0.90559097  0.81080168  0.11145609  1
  H  H2132  1  0.93698243  0.84566840  0.15052925  1
  C  C2133  1  0.94190585  0.90978628  0.19175435  1
  C  C2134  1  0.94982372  0.88158631  0.15747934  1
  H  H2135  1  0.95442601  0.89809505  0.04759980  1
  C  C2136  1  0.79258333  0.83976501  0.13352157  1
  C  C2137  1  0.80128629  0.86130902  0.17158823  1
  H  H2138  1  0.80535909  0.90213174  0.17242789  1
  C  C2139  1  0.80469272  0.83172582  0.21015412  1
  O  O2140  1  0.90065944  0.85680631  0.21852807  1
  C  C2141  1  0.95655511  0.95511628  0.19986713  1
  C  C2142  1  0.91353945  0.89589037  0.22376778  1
  C  C2143  1  0.93246303  0.77485426  0.05297338  1
  H  H2144  1  0.91532470  0.79483148  0.03133120  1
  C  C2145  1  0.98302217  0.88462685  0.05230630  1
  C  C2146  1  0.97944571  0.89739144  0.13343677  1
  H  H2147  1  0.92989013  0.99142732  0.11983666  1
  H  H2148  1  0.94933812  0.97832373  0.22678237  1
  C  C2149  1  0.81811502  0.84805868  0.24837842  1
  C  C2150  1  0.99353003  0.94448818  0.14085709  1
  H  H2151  1  0.99765802  0.82844576  0.10489257  1
  C  C2152  1  0.99386700  0.86657333  0.09739981  1
  C  C2153  1  0.77130562  0.59480226  0.42974303  1
  O  O2154  1  0.97978442  0.55786732  0.30940385  1
  C  C2155  1  0.98199363  0.61163064  0.45022710  1
  C  C2156  1  0.89894594  0.54039821  0.45521810  1
  H  H2157  1  0.77542952  0.55889619  0.44519345  1
  C  C2158  1  0.77975037  0.68692594  0.42711782  1
  H  H2159  1  0.97281419  0.61421690  0.38129981  1
  C  C2160  1  0.78969325  0.63757755  0.44374476  1
  C  C2161  1  0.80046224  0.72858597  0.43983693  1
  O  O2162  1  0.92307309  0.65548266  0.34552307  1
  O  O2163  1  0.88888846  0.70437664  0.38158487  1
  C  C2164  1  0.93337011  0.65374635  0.41911338  1
  C  C2165  1  0.91203351  0.67175333  0.37997371  1
  C  C2166  1  0.96257588  0.62442623  0.41281165  1
  C  C2167  1  0.82860624  0.72104723  0.46720305  1
  C  C2168  1  0.91946333  0.67015090  0.45694981  1
  H  H2169  1  0.89539759  0.69608671  0.45683927  1
  C  C2170  1  0.81933514  0.63345670  0.47377989  1
  H  H2171  1  0.91615615  0.54576550  0.42585589  1
  C  C2172  1  0.86175765  0.52742108  0.44788680  1
  C  C2173  1  0.83672698  0.52023009  0.48311182  1
  O  O2174  1  0.97032634  0.74286531  0.27845857  1
  C  C2175  1  0.93793445  0.74228949  0.26893901  1
  H  H2176  1  0.82331693  0.74452213  0.30609558  1
  H  H2177  1  0.82594986  0.59622322  0.48218272  1
  C  C2178  1  0.83919446  0.67576170  0.48554369  1
  C  C2179  1  0.84693902  0.51284009  0.40799376  1
  H  H2180  1  0.80851140  0.51352834  0.47838440  1
  O  O2181  1  0.83576862  0.50183552  0.37521102  1
  C  C2182  1  0.93761730  0.65614260  0.49338297  1
  C  C2183  1  0.96948728  0.62561799  0.49249189  1
  C  C2184  1  0.75064429  0.69094712  0.39669570  1
  H  H2185  1  0.96299624  0.51555167  0.37293341  1
  C  C2186  1  0.99093015  0.51273965  0.38422242  1
  H  H2187  1  0.94098145  0.55382977  0.49843589  1
  C  C2188  1  0.91309302  0.54316021  0.49603088  1
  C  C2189  1  0.75083456  0.95647240  0.34440061  1
  H  H2190  1  0.82358765  0.88721238  0.25233745  1
  C  C2191  1  0.97952960  0.75821411  0.42014328  1
  C  C2192  1  0.99447569  0.76054852  0.46329720  1
  C  C2193  1  0.81580626  0.76768290  0.27898166  1
  C  C2194  1  0.83802471  0.98955126  0.44408734  1
  O  O2195  1  0.85460991  0.88070757  0.32223272  1
  O  O2196  1  0.90787979  0.92303292  0.25601085  1
  H  H2197  1  0.94883014  0.85378421  0.35337552  1
  O  O2198  1  0.89131662  0.98193906  0.33958406  1
  C  C2199  1  0.85060076  0.76791674  0.47668564  1
  O  O2200  1  0.84544833  0.80828746  0.46361938  1
  O  O2201  1  0.97292565  0.91476273  0.32024386  1
  O  O2202  1  0.91592671  0.76719535  0.28866253  1
  N  N2203  1  0.93752988  0.79639041  0.49351071  1
  O  O2204  1  0.90017625  0.96787178  0.46907730  1
  H  H2205  1  0.79461783  0.76466541  0.42595151  1
  C  C2206  1  0.81579998  0.98785832  0.33496536  1
  H  H2207  1  0.79418630  0.93719859  0.44762193  1
  C  C2208  1  0.93224533  0.79617525  0.45261356  1
  O  O2209  1  0.85294705  0.91720608  0.48417996  1
  C  C2210  1  0.84500081  0.83685837  0.32102735  1
  H  H2211  1  0.82962155  0.96013349  0.35258730  1
  N  N2212  1  0.94594169  0.78019655  0.41530219  1
  H  H2213  1  0.90360392  0.81275537  0.44838192  1
  C  C2214  1  0.80188074  0.97502963  0.43912809  1
  Zn  Zn2215  1  0.90901291  0.77674289  0.35693985  1
  H  H2216  1  0.99915658  0.98296114  0.30261748  1
  C  C2217  1  0.97235597  0.77918166  0.49836375  1
  O  O2218  1  0.98648388  0.84638181  0.28589393  1
  H  H2219  1  0.90656462  0.94854223  0.49430015  1
  C  C2220  1  0.99042510  0.89236233  0.29283103  1
  C  C2221  1  0.86085260  0.95370895  0.46650410  1
  C  C2222  1  0.82575448  0.81720704  0.28183163  1
  H  H2223  1  0.75913269  0.92132376  0.36047780  1
  O  O2224  1  0.92449260  0.84971169  0.35875495  1
  O  O2225  1  0.85224846  0.80854612  0.34954972  1
  C  C2226  1  0.77762339  0.99173602  0.33044758  1
  Zn  Zn2227  1  0.91083694  0.90995030  0.32299276  1
  C  C2228  1  0.87288078  0.54568479  0.60580675  1
  C  C2229  1  0.88119329  0.55789394  0.64979411  1
  C  C2230  1  0.90039695  0.54668506  0.57614219  1
  C  C2231  1  0.89035670  0.53922832  0.53337621  1
  O  O2232  1  0.84891723  0.54488238  0.67918184  1
  C  C2233  1  0.83655006  0.52849820  0.59847608  1
  H  H2234  1  0.92739290  0.56230524  0.58402103  1
  O  O2235  1  0.90813859  0.57337834  0.66471973  1
  H  H2236  1  0.82074294  0.62346039  0.58315258  1
  N  N2237  1  0.82706909  0.64813161  0.65101748  1
  C  C2238  1  0.82909097  0.65115968  0.60702075  1
  Zn  Zn2239  1  0.79993555  0.58254215  0.69336065  1
  H  H2240  1  0.86080111  0.55722591  0.70312474  1
  C  C2241  1  0.84709053  0.68966585  0.66395880  1
  N  N2242  1  0.84510918  0.69242612  0.59340540  1
  N  N2243  1  0.85421948  0.70307348  0.70127364  1
  C  C2244  1  0.85078704  0.52373386  0.52342501  1
  H  H2245  1  0.97006968  0.62130874  0.56215546  1
  H  H2246  1  0.92930181  0.67154311  0.52426288  1
  H  H2247  1  0.76432470  0.65161358  0.59934890  1
  C  C2248  1  0.85779351  0.71626737  0.62649825  1
  H  H2249  1  0.89624629  0.72312437  0.57051119  1
  C  C2250  1  0.82550216  0.51811116  0.55884443  1
  O  O2251  1  0.92267975  0.71866270  0.56822424  1
  O  O2252  1  0.75053905  0.59661111  0.66363375  1
  H  H2253  1  0.81637188  0.52740259  0.62487125  1
  H  H2254  1  0.93021036  0.74303848  0.54479832  1
  C  C2255  1  0.98357600  0.61200491  0.53175404  1
  H  H2256  1  0.79733857  0.50658913  0.55622583  1
  H  H2257  1  0.75394448  0.68708009  0.52745533  1
  H  H2258  1  0.94048790  0.50371956  0.69971247  1
  N  N2259  1  0.99739928  0.53230553  0.73862620  1
  Zn  Zn2260  1  0.83984621  0.66396753  0.74501125  1
  O  O2261  1  0.99280882  0.73906054  0.73929570  1
  H  H2262  1  0.86028592  0.67359919  0.50737385  1
  H  H2263  1  0.75248953  0.75622816  0.71987640  1
  O  O2264  1  0.87638582  0.75730057  0.50177758  1
  C  C2265  1  0.75256479  0.75827620  0.64960689  1
  N  N2266  1  0.98273352  0.77214314  0.53923822  1
  H  H2267  1  0.97350501  0.78084538  0.56799698  1
  H  H2268  1  0.77800626  0.97196523  0.69043529  1
  O  O2269  1  0.94051807  0.93689959  0.65242554  1
  C  C2270  1  0.89951118  0.91897859  0.56601226  1
  N  N2271  1  0.89730124  0.77929696  0.65558541  1
  C  C2272  1  0.92015955  0.80788887  0.63669770  1
  C  C2273  1  0.87660757  0.76744460  0.62220605  1
  H  H2274  1  0.85075921  0.77089540  0.56779442  1
  N  N2275  1  0.86743241  0.79310835  0.58530741  1
  Zn  Zn2276  1  0.83019173  0.85241512  0.58747018  1
  Zn  Zn2277  1  0.90168341  0.81189365  0.54015536  1
  N  N2278  1  0.91724873  0.88517340  0.54632870  1
  C  C2279  1  0.78510933  0.78922993  0.64333472  1
  O  O2280  1  0.79917091  0.80933418  0.67323229  1
  C  C2281  1  0.94816224  0.90661498  0.53168871  1
  N  N2282  1  0.86549837  0.91814100  0.58843890  1
  O  O2283  1  0.78917849  0.90614960  0.56961081  1
  C  C2284  1  0.78138744  0.94365345  0.59126024  1
  O  O2285  1  0.79800829  0.79789849  0.60549538  1
  O  O2286  1  0.94501394  0.83250337  0.63087998  1
  C  C2287  1  0.86080916  0.96423021  0.60439344  1
  N  N2288  1  0.96219348  0.95196679  0.53442974  1
  Zn  Zn2289  1  0.88790001  0.75939335  0.71814583  1
  O  O2290  1  0.77368231  0.93900062  0.62780313  1
  C  C2291  1  0.91073915  0.97234969  0.57193406  1
  H  H2292  1  0.94259199  0.90572003  0.63645328  1
  H  H2293  1  0.92462670  0.95468833  0.63642568  1
  H  H2294  1  0.83764655  0.97612803  0.62391401  1
  H  H2295  1  0.96444847  0.88156705  0.51218595  1
  H  H2296  1  0.97852963  0.97001254  0.68251279  1
  C  C2297  1  0.94383790  0.98937731  0.55121447  1
  H  H2298  1  0.80069560  0.96265288  0.51269839  1
  H  H2299  1  0.99649370  0.89121717  0.70550581  1
  N  N2300  1  0.88533235  0.99769924  0.59463636  1
  C  C2301  1  0.79170265  0.99602990  0.52794949  1
  C  C2302  1  0.78082180  0.99406989  0.57056250  1
  O  O2303  1  0.91008236  0.88405945  0.74865045  1
  N  N2304  1  0.82389767  0.51073268  0.98105031  1
  C  C2305  1  0.75095756  0.53152184  0.95098956  1
  H  H2306  1  0.81487889  0.53518085  0.95863076  1
  C  C2307  1  0.77745182  0.50276880  0.81848801  1
  N  N2308  1  0.82614083  0.59443914  0.75439915  1
  Zn  Zn2309  1  0.94889137  0.52675587  0.76881609  1
  N  N2310  1  0.88389487  0.55921230  0.76324569  1
  C  C2311  1  0.89794053  0.52489829  0.78890958  1
  C  C2312  1  0.84845624  0.55972385  0.77347999  1
  C  C2313  1  0.83071684  0.52880563  0.80682907  1
  N  N2314  1  0.79561018  0.54280351  0.80999984  1
  Zn  Zn2315  1  0.77600333  0.61432940  0.78832609  1
  H  H2316  1  0.91806898  0.59332251  0.86502018  1
  C  C2317  1  0.94299324  0.60379760  0.84851026  1
  C  C2318  1  0.97431897  0.58122769  0.85991022  1
  C  C2319  1  0.76154451  0.65676207  0.89253617  1
  Zn  Zn2320  1  0.82871078  0.66601011  0.84517232  1
  N  N2321  1  0.79536427  0.66523297  0.89298103  1
  C  C2322  1  0.80933624  0.67212783  0.93305733  1
  C  C2323  1  0.94116515  0.64430215  0.82129203  1
  C  C2324  1  0.97385279  0.66144442  0.80502998  1
  O  O2325  1  0.88367974  0.65791719  0.83761582  1
  C  C2326  1  0.90746718  0.67206153  0.81099047  1
  H  H2327  1  0.97271772  0.69324724  0.78235129  1
  N  N2328  1  0.80315250  0.68507345  0.78961062  1
  C  C2329  1  0.78689016  0.66840731  0.97189898  1
  N  N2330  1  0.84660406  0.68487708  0.93750614  1
  H  H2331  1  0.97339092  0.55333564  0.88553284  1
  O  O2332  1  0.90583080  0.70593734  0.78581606  1
  H  H2333  1  0.85706206  0.69713269  0.96595892  1
  H  H2334  1  0.86361660  0.70122477  0.91611360  1
  C  C2335  1  0.78324535  0.72946747  0.78514062  1
  C  C2336  1  0.97546867  0.69298313  0.97516845  1
  H  H2337  1  0.97232921  0.68288428  0.94173758  1
  C  C2338  1  0.95697216  0.73187950  0.99247940  1
  C  C2339  1  0.97244238  0.90231909  0.86643167  1
  C  C2340  1  0.75513421  0.96393977  0.83512397  1
  C  C2341  1  0.99695325  0.76510114  0.76950430  1
  N  N2342  1  0.75596908  0.91314001  0.83403822  1
  Zn  Zn2343  1  0.79379097  0.90697162  0.91224870  1
  H  H2344  1  0.96562671  0.85077039  0.79317985  1
  C  C2345  1  0.98188738  0.83253311  0.81753438  1
  C  C2346  1  0.81595032  0.80091896  0.92747192  1
  H  H2347  1  0.95613570  0.92369860  0.84316158  1
  C  C2348  1  0.96981306  0.92203247  0.90505396  1
  C  C2349  1  0.83356287  0.90925566  0.86728838  1
  C  C2350  1  0.98611392  0.89003899  0.93665034  1
  C  C2351  1  0.87506129  0.87120627  0.81018956  1
  H  H2352  1  0.85952028  0.80102932  0.83247563  1
  H  H2353  1  0.89314480  0.94255216  0.79237349  1
  H  H2354  1  0.81235605  0.75823853  0.92708993  1
  C  C2355  1  0.89784101  0.85398132  0.77195096  1
  O  O2356  1  0.95985177  0.94345753  0.98550582  1
  C  C2357  1  0.98765082  0.85467190  0.85673721  1
  H  H2358  1  0.75543777  0.93574466  0.77323392  1
  H  H2359  1  0.93856606  0.75461884  0.97232656  1
  H  H2360  1  0.78335736  0.81307115  0.87100609  1
  C  C2361  1  0.77980321  0.80733331  0.79216979  1
  C  C2362  1  0.87607499  0.92298753  0.81462668  1
  N  N2363  1  0.77931354  0.98747889  0.81278001  1
  H  H2364  1  0.77514286  0.89159141  0.81985666  1
  H  H2365  1  0.79606533  0.84124382  0.80082210  1
  C  C2366  1  0.85589201  0.83939782  0.83579363  1
  C  C2367  1  0.83181165  0.85751447  0.86733884  1
  N  N2368  1  0.80290412  0.77053794  0.78410116  1
  C  C2369  1  0.80310406  0.83039346  0.89052827  1
  H  H2370  1  0.95975862  0.95809833  0.91179580  1
  O  O2371  1  0.89876427  0.80779284  0.76631381  1
  O  O2372  1  0.83487278  0.80762152  0.95745613  1
  C  C2373  1  0.97956158  0.91113102  0.97849905  1
  C  C2374  1  0.85307730  0.94300876  0.84493344  1
  H  H2375  1  0.84869627  0.98359597  0.84841992  1
