# generated using pymatgen
data_Zn4H42C60O19
_symmetry_space_group_name_H-M   'P 1'
_cell_length_a   75.98359416
_cell_length_b   16.74785296
_cell_length_c   29.57779364
_cell_angle_alpha   90.00000000
_cell_angle_beta   90.00000000
_cell_angle_gamma   90.00000000
_symmetry_Int_Tables_number   1
_chemical_formula_structural   Zn4H42C60O19
_chemical_formula_sum   'Zn32 H336 C480 O152'
_cell_volume   37639.57808569
_cell_formula_units_Z   8
loop_
 _symmetry_equiv_pos_site_id
 _symmetry_equiv_pos_as_xyz
  1  'x, y, z'
loop_
 _atom_site_type_symbol
 _atom_site_label
 _atom_site_symmetry_multiplicity
 _atom_site_fract_x
 _atom_site_fract_y
 _atom_site_fract_z
 _atom_site_occupancy
  H  H0  1  0.49379839  0.81229736  0.02445464  1
  C  C1  1  0.46854723  0.67465285  0.05331151  1
  H  H2  1  0.45440599  0.65353338  0.05281289  1
  H  H3  1  0.47660566  0.68417319  0.02096732  1
  O  O4  1  0.47636318  0.68169738  0.08735362  1
  H  H5  1  0.48858908  0.63804153  0.74832562  1
  O  O6  1  0.48471301  0.77045285  0.93487853  1
  C  C7  1  0.48702489  0.67824636  0.77801863  1
  O  O8  1  0.49015080  0.74595962  0.77246196  1
  H  H9  1  0.48264035  0.65767332  0.81307409  1
  C  C10  1  0.49950055  0.75176082  0.93450086  1
  C  C11  1  0.55163414  0.16735522  0.17867531  1
  H  H12  1  0.56539463  0.14119809  0.10070661  1
  C  C13  1  0.55934737  0.09597912  0.08019136  1
  C  C14  1  0.55446595  0.36211757  0.07305148  1
  C  C15  1  0.55379732  0.10879526  0.03518027  1
  H  H16  1  0.53987088  0.20585265  0.17512782  1
  C  C17  1  0.54820614  0.43047583  0.09660202  1
  C  C18  1  0.54895822  0.07301845  0.18099437  1
  O  O19  1  0.51046289  0.07381873  0.11412297  1
  Zn  Zn20  1  0.54364507  0.29460422  0.01927932  1
  C  C21  1  0.56840945  0.20519512  0.17961966  1
  C  C22  1  0.56827568  0.30797562  0.06526004  1
  C  C23  1  0.56898662  0.23560812  0.03344932  1
  C  C24  1  0.55465698  0.19022837  0.01310935  1
  C  C25  1  0.57495623  0.28413656  0.18658073  1
  H  H26  1  0.57984338  0.31155959  0.08878823  1
  H  H27  1  0.58232851  0.20483538  0.02616212  1
  H  H28  1  0.55024928  0.36663494  0.18778614  1
  Zn  Zn29  1  0.57608627  0.08273719  0.19202230  1
  O  O30  1  0.58209587  0.34480847  0.19284071  1
  H  H31  1  0.59988683  0.28171268  0.21627830  1
  C  C32  1  0.61198070  0.25167341  0.23161413  1
  O  O33  1  0.61604072  0.30847346  0.13570745  1
  C  C34  1  0.61629526  0.07952239  0.09248998  1
  C  C35  1  0.60809566  0.44513517  0.07273654  1
  H  H36  1  0.58783698  0.47334134  0.02018250  1
  Zn  Zn37  1  0.58617157  0.47270052  0.12108899  1
  O  O38  1  0.60431787  0.07755864  0.12655738  1
  H  H39  1  0.61511393  0.20624918  0.08678949  1
  H  H40  1  0.52484740  0.12908365  0.06489996  1
  C  C41  1  0.51281148  0.09483806  0.07640105  1
  H  H42  1  0.61545711  0.40080931  0.05396822  1
  C  C43  1  0.61611982  0.48215842  0.11320660  1
  H  H44  1  0.53833251  0.42862445  0.17992440  1
  O  O45  1  0.53957787  0.38056844  0.19757502  1
  C  C46  1  0.54724251  0.04004313  0.01311059  1
  H  H47  1  0.50387376  0.07279125  0.04885374  1
  H  H48  1  0.53531898  0.05440578  0.19002026  1
  C  C49  1  0.55643760  0.02179133  0.10505986  1
  C  C50  1  0.55942990  0.01713239  0.15437185  1
  C  C51  1  0.62012249  0.15316909  0.07268975  1
  C  C52  1  0.59320872  0.49855903  0.05226781  1
  O  O53  1  0.54412904  0.48851391  0.11601834  1
  H  H54  1  0.60178977  0.01760939  0.12686887  1
  O  O55  1  0.58928820  0.06428266  0.00541396  1
  C  C56  1  0.62654785  0.28389182  0.16122954  1
  C  C57  1  0.62831685  0.24539232  0.20644239  1
  C  C58  1  0.63145247  0.15951174  0.03525679  1
  C  C59  1  0.64397504  0.20692824  0.22704567  1
  O  O60  1  0.64845010  0.43774762  0.11446743  1
  C  C61  1  0.64047416  0.09224153  0.01738468  1
  Zn  Zn62  1  0.65138463  0.27403448  0.14126473  1
  C  C63  1  0.63567578  0.47350333  0.12049503  1
  O  O64  1  0.65700163  0.19850309  0.20356644  1
  H  H65  1  0.66307680  0.22562365  0.02059686  1
  O  O66  1  0.66692754  0.10922418  0.09239733  1
  O  O67  1  0.71943827  0.08629928  0.13556980  1
  C  C68  1  0.69129501  0.14894389  0.05092436  1
  C  C69  1  0.70349259  0.21078220  0.04143876  1
  C  C70  1  0.67664671  0.16898126  0.08353032  1
  O  O71  1  0.67437803  0.23415909  0.10262029  1
  C  C72  1  0.69092877  0.07100137  0.03288249  1
  O  O73  1  0.70193997  0.28116514  0.06232125  1
  C  C74  1  0.71474496  0.34391427  0.04733052  1
  H  H75  1  0.70804746  0.19666664  0.14070656  1
  O  O76  1  0.70896441  0.14975308  0.20504990  1
  H  H77  1  0.71473976  0.39818320  0.06818967  1
  C  C78  1  0.70615786  0.13022446  0.15159578  1
  C  C79  1  0.72402461  0.14060227  0.22477557  1
  H  H80  1  0.72844816  0.32710511  0.04070188  1
  C  C81  1  0.71747145  0.18552757  0.01259617  1
  H  H82  1  0.70903140  0.36077955  0.01383917  1
  H  H83  1  0.72855000  0.22091074  0.00173712  1
  H  H84  1  0.68086357  0.02873250  0.03966056  1
  C  C85  1  0.63500651  0.23560596  0.00690635  1
  O  O86  1  0.64905135  0.00709083  0.17832944  1
  C  C87  1  0.70422819  0.05274106  0.00408582  1
  H  H88  1  0.68853436  0.04913999  0.23896788  1
  H  H89  1  0.69252321  0.11714511  0.13754493  1
  Zn  Zn90  1  0.67230369  0.00518038  0.12558107  1
  C  C91  1  0.73683517  0.07575812  0.15628784  1
  C  C92  1  0.73921891  0.10885389  0.20117100  1
  H  H93  1  0.74748897  0.20395792  0.16933189  1
  C  C94  1  0.63800267  0.01604056  0.03710129  1
  C  C95  1  0.65274230  0.25981499  0.00456659  1
  O  O96  1  0.74790363  0.04237722  0.13638208  1
  C  C97  1  0.62533335  0.00792217  0.07499018  1
  C  C98  1  0.59437714  0.00944269  0.48456950  1
  H  H99  1  0.51501522  0.10131675  0.26289848  1
  O  O100  1  0.52304525  0.13951875  0.27025992  1
  H  H101  1  0.51931630  0.15641383  0.29971535  1
  H  H102  1  0.62318563  0.34492586  0.27594677  1
  H  H103  1  0.60851813  0.42343664  0.28312379  1
  O  O104  1  0.54153167  0.07133792  0.42128083  1
  H  H105  1  0.55120401  0.20330163  0.29694308  1
  C  C106  1  0.55105668  0.08618728  0.39005376  1
  C  C107  1  0.55871058  0.18610231  0.32985122  1
  O  O108  1  0.54778730  0.16272556  0.36209985  1
  C  C109  1  0.56514714  0.03167082  0.37611685  1
  H  H110  1  0.56664451  0.35423774  0.27017982  1
  H  H111  1  0.56534249  0.24593571  0.33837381  1
  O  O112  1  0.57296802  0.12110973  0.31782410  1
  C  C113  1  0.57639711  0.05565560  0.33885847  1
  H  H114  1  0.55965946  0.41243789  0.31950502  1
  H  H115  1  0.55268972  0.18690270  0.45575367  1
  C  C116  1  0.57125351  0.38492875  0.30092685  1
  O  O117  1  0.58162314  0.34550587  0.32998322  1
  C  C118  1  0.61181528  0.21891353  0.27394896  1
  C  C119  1  0.59118265  0.39449182  0.36517012  1
  H  H120  1  0.60163283  0.22050406  0.35437059  1
  C  C121  1  0.60989092  0.13323599  0.40930023  1
  H  H122  1  0.59920117  0.21545984  0.29345872  1
  C  C123  1  0.61056947  0.17294922  0.36749697  1
  Zn  Zn124  1  0.58794552  0.16964120  0.44633584  1
  O  O125  1  0.59725207  0.36683334  0.39911707  1
  O  O126  1  0.58011379  0.47319107  0.28727248  1
  C  C127  1  0.59548071  0.47568198  0.35459423  1
  H  H128  1  0.61906838  0.05448570  0.46360900  1
  C  C129  1  0.62024207  0.07594172  0.42899618  1
  H  H130  1  0.62446546  0.40328459  0.32639495  1
  C  C131  1  0.62219163  0.40774303  0.28879066  1
  H  H132  1  0.60984463  0.48926380  0.41863246  1
  C  C133  1  0.62488007  0.14454984  0.34126826  1
  H  H134  1  0.62199328  0.37424354  0.44836322  1
  C  C135  1  0.59486810  0.09083706  0.49609328  1
  H  H136  1  0.62043613  0.43082265  0.49998889  1
  C  C137  1  0.56429051  0.22097450  0.46810967  1
  O  O138  1  0.56623915  0.28255570  0.48656946  1
  H  H139  1  0.73946992  0.03156536  0.30185807  1
  C  C140  1  0.66765851  0.17994997  0.38706501  1
  C  C141  1  0.70488813  0.01790502  0.49825897  1
  Zn  Zn142  1  0.70195650  0.26583196  0.49265463  1
  C  C143  1  0.70866214  0.14717609  0.48256207  1
  C  C144  1  0.74821458  0.22955522  0.42837625  1
  C  C145  1  0.68495939  0.18140012  0.29992348  1
  C  C146  1  0.62802677  0.38412594  0.48023747  1
  C  C147  1  0.67574813  0.11047255  0.36932484  1
  C  C148  1  0.66616140  0.48128769  0.25018007  1
  C  C149  1  0.71493247  0.02346598  0.45932235  1
  H  H150  1  0.69025053  0.18496512  0.26487746  1
  C  C151  1  0.73880384  0.25496483  0.35029183  1
  C  C152  1  0.64113975  0.24847610  0.49330693  1
  C  C153  1  0.67661911  0.25106253  0.31789942  1
  C  C154  1  0.69375774  0.37079896  0.40312655  1
  C  C155  1  0.69164621  0.00561646  0.26532439  1
  C  C156  1  0.74461852  0.15713062  0.28833116  1
  C  C157  1  0.72367648  0.33327527  0.40823252  1
  H  H158  1  0.63986672  0.41815378  0.47057056  1
  H  H159  1  0.72400703  0.01232541  0.37116342  1
  H  H160  1  0.63268457  0.00458735  0.48586760  1
  C  C161  1  0.74694242  0.18177777  0.33765419  1
  C  C162  1  0.67684694  0.46439475  0.44848247  1
  H  H163  1  0.64821054  0.06764176  0.33644100  1
  O  O164  1  0.66391725  0.45291347  0.42760531  1
  H  H165  1  0.73228002  0.29201336  0.32304099  1
  C  C166  1  0.68511179  0.11089624  0.32706481  1
  O  O167  1  0.63520343  0.45856155  0.26955985  1
  C  C168  1  0.68503850  0.45617339  0.25438865  1
  C  C169  1  0.62650271  0.17508581  0.29453783  1
  C  C170  1  0.69111572  0.02982318  0.31101870  1
  H  H171  1  0.70083448  0.35285553  0.28525862  1
  H  H172  1  0.72642267  0.13121007  0.42440971  1
  C  C173  1  0.72818259  0.16451805  0.26883546  1
  C  C174  1  0.68820590  0.38028364  0.27730223  1
  H  H175  1  0.67306349  0.07277923  0.45495849  1
  C  C176  1  0.71835748  0.10715954  0.45144258  1
  C  C177  1  0.63647206  0.08390491  0.35725735  1
  C  C178  1  0.64197775  0.17175029  0.27089309  1
  C  C179  1  0.65256111  0.43538790  0.26761640  1
  C  C180  1  0.71124735  0.44460923  0.45665609  1
  C  C181  1  0.73823098  0.27385865  0.39628860  1
  C  C182  1  0.72477548  0.39611123  0.43903605  1
  H  H183  1  0.74752381  0.24702208  0.46256947  1
  C  C184  1  0.64898140  0.24602306  0.45077154  1
  H  H185  1  0.64289188  0.28601691  0.42388044  1
  H  H186  1  0.64583602  0.32722944  0.30286839  1
  H  H187  1  0.65286792  0.14080329  0.28691347  1
  C  C188  1  0.63456710  0.04586900  0.39833309  1
  O  O189  1  0.71381265  0.49546668  0.49223257  1
  C  C190  1  0.66737120  0.24885082  0.35829304  1
  H  H191  1  0.66113192  0.30495393  0.36941841  1
  C  C192  1  0.66424064  0.12411117  0.46578960  1
  C  C193  1  0.65903940  0.18326252  0.43473489  1
  C  C194  1  0.67409994  0.33427785  0.29314104  1
  H  H195  1  0.70417907  0.27474574  0.36197079  1
  C  C196  1  0.70714942  0.32168403  0.38818886  1
  H  H197  1  0.67414841  0.05536758  0.38703171  1
  C  C198  1  0.65668972  0.36403001  0.28786908  1
  H  H199  1  0.71783056  0.19199843  0.29057229  1
  H  H200  1  0.73744537  0.41621090  0.45555446  1
  C  C201  1  0.69425846  0.42858509  0.43795434  1
  H  H202  1  0.68113893  0.36458109  0.38774882  1
  C  C203  1  0.60394860  0.06100659  0.57056170  1
  C  C204  1  0.59979856  0.12097965  0.53857523  1
  H  H205  1  0.59988295  0.18604270  0.54687141  1
  Zn  Zn206  1  0.60832268  0.10417887  0.63433356  1
  C  C207  1  0.62223641  0.11056514  0.70117631  1
  C  C208  1  0.61090234  0.03959698  0.71361002  1
  O  O209  1  0.51899456  0.11984030  0.71525014  1
  C  C210  1  0.59910515  0.00729733  0.67661220  1
  O  O211  1  0.55025225  0.00883509  0.74041793  1
  H  H212  1  0.63106683  0.34891996  0.67194167  1
  H  H213  1  0.62853367  0.49185759  0.70567087  1
  O  O214  1  0.62847741  0.22284057  0.58900017  1
  O  O215  1  0.63758569  0.13308596  0.69753862  1
  C  C216  1  0.63788646  0.17619156  0.56961200  1
  C  C217  1  0.64505833  0.18503639  0.52230540  1
  O  O218  1  0.64275526  0.10734394  0.58970900  1
  Zn  Zn219  1  0.65639732  0.07694182  0.64671603  1
  C  C220  1  0.63450499  0.36305262  0.70658360  1
  H  H221  1  0.64156029  0.23629128  0.71902536  1
  H  H222  1  0.66062312  0.07986749  0.53318385  1
  H  H223  1  0.66459301  0.16007330  0.70050067  1
  O  O224  1  0.67343838  0.13508491  0.68101322  1
  C  C225  1  0.73879969  0.35400596  0.63752276  1
  C  C226  1  0.72868614  0.32200446  0.55985262  1
  O  O227  1  0.67916102  0.29936240  0.56753070  1
  H  H228  1  0.69561060  0.31846539  0.64198698  1
  H  H229  1  0.69436648  0.17220925  0.57866667  1
  C  C230  1  0.69203683  0.11284413  0.55923013  1
  C  C231  1  0.69468079  0.29800934  0.55887661  1
  C  C232  1  0.70891318  0.32472455  0.62808627  1
  C  C233  1  0.71128645  0.31336812  0.58204988  1
  C  C234  1  0.72247520  0.34783109  0.65684921  1
  H  H235  1  0.72114050  0.35793157  0.69325872  1
  C  C236  1  0.73953222  0.11162575  0.69100858  1
  Zn  Zn237  1  0.69778805  0.12780732  0.71008533  1
  O  O238  1  0.72705477  0.17696598  0.70752055  1
  C  C239  1  0.73552585  0.23908028  0.72979383  1
  O  O240  1  0.68485183  0.07371382  0.58864729  1
  C  C241  1  0.74297157  0.34219544  0.59311306  1
  O  O242  1  0.72957463  0.31133708  0.51852465  1
  H  H243  1  0.73323732  0.06067535  0.67214272  1
  H  H244  1  0.73805801  0.45695822  0.51644844  1
  O  O245  1  0.69700687  0.25607097  0.72344198  1
  H  H246  1  0.70050809  0.44291694  0.70934194  1
  C  C247  1  0.70571740  0.29927389  0.74773349  1
  C  C248  1  0.64171134  0.30066298  0.73214288  1
  C  C249  1  0.63519833  0.44117589  0.72302751  1
  C  C250  1  0.70120584  0.09654725  0.51629459  1
  H  H251  1  0.74968117  0.13426792  0.66807689  1
  H  H252  1  0.74797458  0.08267785  0.71686186  1
  C  C253  1  0.74039168  0.00641841  0.54674424  1
  H  H254  1  0.73754882  0.04565440  0.51660734  1
  C  C255  1  0.68924716  0.48379993  0.70374678  1
  C  C256  1  0.65625228  0.12310519  0.50813778  1
  O  O257  1  0.63053805  0.31308725  0.50662211  1
  O  O258  1  0.70350745  0.00026712  0.70014304  1
  Zn  Zn259  1  0.68284633  0.49003671  0.59245639  1
  C  C260  1  0.52184982  0.09523559  0.75222876  1
  Zn  Zn261  1  0.61263753  0.12397880  0.77025266  1
  O  O262  1  0.53334435  0.48265626  0.80619588  1
  H  H263  1  0.54214672  0.38221671  0.83492876  1
  H  H264  1  0.56736406  0.39353380  0.75180245  1
  C  C265  1  0.53607090  0.04232386  0.84977327  1
  C  C266  1  0.53996052  0.03651645  0.76576778  1
  O  O267  1  0.56264288  0.26050563  0.76197872  1
  Zn  Zn268  1  0.54607338  0.15897524  0.77012355  1
  H  H269  1  0.51114138  0.09287409  0.77827702  1
  O  O270  1  0.51678987  0.26716674  0.93785246  1
  O  O271  1  0.54124525  0.11254583  0.84929469  1
  C  C272  1  0.56496671  0.28138167  0.88800986  1
  C  C273  1  0.52862624  0.24599541  0.96016037  1
  O  O274  1  0.56507051  0.36480244  0.89615132  1
  H  H275  1  0.55187975  0.25269457  0.87648504  1
  H  H276  1  0.54972112  0.15695575  0.94284566  1
  H  H277  1  0.56860941  0.24937642  0.91864289  1
  C  C278  1  0.57793423  0.24970192  0.78024965  1
  C  C279  1  0.58061500  0.39740166  0.76804535  1
  H  H280  1  0.52924828  0.02764487  0.92339033  1
  O  O281  1  0.58244563  0.18368427  0.79419637  1
  H  H282  1  0.57451170  0.26331411  0.86125631  1
  C  C283  1  0.58597799  0.03305109  0.84148526  1
  H  H284  1  0.58778871  0.05235130  0.80739718  1
  C  C285  1  0.58730154  0.32688188  0.78841196  1
  C  C286  1  0.58932847  0.47037938  0.77038318  1
  C  C287  1  0.58674548  0.04216963  0.92088729  1
  C  C288  1  0.59091220  0.07757650  0.87870845  1
  H  H289  1  0.59620238  0.13666208  0.87179635  1
  C  C290  1  0.57944271  0.39524718  0.91583599  1
  C  C291  1  0.57847577  0.47965380  0.92150231  1
  O  O292  1  0.59916819  0.15893464  0.95121753  1
  C  C293  1  0.59305821  0.09447004  0.95631568  1
  C  C294  1  0.60248459  0.33277975  0.81679983  1
  O  O295  1  0.60770781  0.26780826  0.84027743  1
  C  C296  1  0.61139039  0.40470436  0.82052979  1
  C  C297  1  0.60967302  0.39934017  0.94890599  1
  C  C298  1  0.59440693  0.35939814  0.93191585  1
  H  H299  1  0.59608760  0.29272134  0.92756759  1
  C  C300  1  0.60484768  0.47408241  0.79920580  1
  C  C301  1  0.54465613  0.19737067  0.96910792  1
  C  C302  1  0.53561987  0.44314160  0.83881024  1
  H  H303  1  0.53106958  0.45565856  0.87359326  1
  H  H304  1  0.62417977  0.40727294  0.83977474  1
  H  H305  1  0.62383347  0.32180064  0.89519805  1
  C  C306  1  0.62326807  0.27281050  0.86861362  1
  H  H307  1  0.62440960  0.21674560  0.88787939  1
  H  H308  1  0.54224923  0.03692655  0.97736058  1
  C  C309  1  0.62453335  0.35018837  0.96712250  1
  C  C310  1  0.60944393  0.48314479  0.94635230  1
  H  H311  1  0.60669042  0.25624655  0.99417094  1
  C  C312  1  0.62015355  0.28052507  0.99061100  1
  C  C313  1  0.74364684  0.02589792  0.89216660  1
  C  C314  1  0.71817701  0.10848717  0.99413693  1
  C  C315  1  0.72982826  0.04909000  0.92174713  1
  C  C316  1  0.64289268  0.00993431  0.92295847  1
  H  H317  1  0.73411082  0.46652738  0.81534572  1
  H  H318  1  0.65565434  0.13178642  0.86435608  1
  H  H319  1  0.71573439  0.03615602  0.91694644  1
  O  O320  1  0.65944869  0.40693124  0.83087577  1
  O  O321  1  0.73041255  0.46167159  0.89657296  1
  H  H322  1  0.63551905  0.27200012  0.84581312  1
  H  H323  1  0.74742234  0.35590812  0.91129358  1
  C  C324  1  0.71453685  0.03302039  0.79152422  1
  C  C325  1  0.68540207  0.29210888  0.95498143  1
  C  C326  1  0.64982844  0.31434028  0.77470123  1
  C  C327  1  0.64338754  0.45116285  0.76418357  1
  C  C328  1  0.72472722  0.29769339  0.75115153  1
  C  C329  1  0.67539529  0.00891792  0.91301341  1
  C  C330  1  0.72513602  0.39432415  0.91199331  1
  C  C331  1  0.64209765  0.38030077  0.96164138  1
  H  H332  1  0.65379542  0.34796316  0.88710619  1
  C  C333  1  0.73473714  0.35869080  0.77215191  1
  H  H334  1  0.71032554  0.25115040  0.93411363  1
  C  C335  1  0.65970250  0.14187712  0.90273828  1
  O  O336  1  0.65400337  0.17717149  0.78404608  1
  H  H337  1  0.74923950  0.36367321  0.77106803  1
  C  C338  1  0.72327533  0.04551836  0.83135270  1
  H  H339  1  0.64842678  0.09647288  0.98637493  1
  C  C340  1  0.65568410  0.33134870  0.97796771  1
  H  H341  1  0.67866886  0.33873668  0.88316374  1
  C  C342  1  0.65195831  0.39428625  0.79149718  1
  C  C343  1  0.67347759  0.35721911  0.96131481  1
  H  H344  1  0.66960961  0.48305804  0.94934390  1
  O  O345  1  0.66536334  0.26366417  0.84221563  1
  C  C346  1  0.69775640  0.37187666  0.77000316  1
  H  H347  1  0.70242154  0.20582710  0.81070838  1
  H  H348  1  0.71998788  0.09805111  0.85176741  1
  H  H349  1  0.69636116  0.13485020  0.85365847  1
  O  O350  1  0.73582254  0.33347285  0.92213138  1
  C  C351  1  0.66492120  0.33434242  0.86496135  1
  H  H352  1  0.68102006  0.23075371  0.96433382  1
  C  C353  1  0.69499392  0.44921277  0.92491637  1
  C  C354  1  0.70701990  0.38451630  0.92602624  1
  H  H355  1  0.65861053  0.20824462  0.90979323  1
  H  H356  1  0.68045594  0.15848190  0.80950977  1
  O  O357  1  0.69955766  0.08394555  0.78159667  1
  C  C358  1  0.69500946  0.14938777  0.81598342  1
  C  C359  1  0.72623594  0.42018495  0.79551924  1
  H  H360  1  0.68322054  0.37602642  0.76920196  1
  C  C361  1  0.73371218  0.08671416  0.96350638  1
  C  C362  1  0.70842947  0.42712877  0.79062818  1
  O  O363  1  0.67396195  0.10298564  0.91458201  1
  C  C364  1  0.67871792  0.43508096  0.94520687  1
  C  C365  1  0.65608440  0.24202114  0.79743111  1
  O  O366  1  0.64159127  0.08425304  0.91388425  1
  H  H367  1  0.64499311  0.43455931  0.94068856  1
  C  C368  1  0.70136057  0.30511103  0.93664313  1
  C  C369  1  0.55378102  0.74271298  0.10288955  1
  C  C370  1  0.53986728  0.74048930  0.14366866  1
  C  C371  1  0.55181370  0.69971598  0.06225440  1
  Zn  Zn372  1  0.52929833  0.65799509  0.09389525  1
  O  O373  1  0.53051486  0.79659807  0.14865073  1
  H  H374  1  0.54629331  0.90107625  0.09890204  1
  C  C375  1  0.56115201  0.69593125  0.02317556  1
  C  C376  1  0.54829666  0.95889938  0.08171431  1
  C  C377  1  0.54500241  0.96557941  0.03500943  1
  H  H378  1  0.51320607  0.92392772  0.05702851  1
  C  C379  1  0.51749358  0.89444541  0.02519515  1
  C  C380  1  0.53551350  0.89854458  0.01006775  1
  C  C381  1  0.56958059  0.95411684  0.17930107  1
  H  H382  1  0.56193608  0.90301737  0.19250714  1
  H  H383  1  0.53396835  0.71224243  0.20777037  1
  O  O384  1  0.54246142  0.68560320  0.18929758  1
  C  C385  1  0.56841948  0.79367404  0.10045283  1
  C  C386  1  0.57600115  0.74914045  0.02139654  1
  H  H387  1  0.58472946  0.64974417  0.13232542  1
  H  H388  1  0.57354495  0.82886334  0.12726399  1
  C  C389  1  0.57839391  0.79453706  0.06155577  1
  C  C390  1  0.59143208  0.59841837  0.11471761  1
  H  H391  1  0.59007176  0.83365424  0.06347441  1
  Zn  Zn392  1  0.60892671  0.61379466  0.05024898  1
  C  C393  1  0.58609981  0.96613526  0.20640326  1
  O  O394  1  0.59809373  0.95212954  0.22973434  1
  O  O395  1  0.59785741  0.70406237  0.21115895  1
  C  C396  1  0.59767134  0.77492888  0.21406047  1
  C  C397  1  0.60745817  0.55139532  0.13491721  1
  C  C398  1  0.58423352  0.56770839  0.07131561  1
  H  H399  1  0.59469421  0.95136785  0.02592875  1
  H  H400  1  0.57267394  0.98826888  0.03909405  1
  C  C401  1  0.50593336  0.82587935  0.00605903  1
  H  H402  1  0.58811979  0.80332186  0.23904722  1
  H  H403  1  0.60822982  0.82256971  0.01751456  1
  O  O404  1  0.61204852  0.88238285  0.11389203  1
  C  C405  1  0.61895538  0.93476497  0.09384246  1
  H  H406  1  0.60865377  0.81051649  0.19889338  1
  C  C407  1  0.58342667  0.99204711  0.01588257  1
  H  H408  1  0.62869101  0.94233299  0.23852008  1
  Zn  Zn409  1  0.63013761  0.54923299  0.17591903  1
  C  C410  1  0.65192691  0.94384269  0.19706549  1
  O  O411  1  0.63087821  0.67641204  0.02458509  1
  H  H412  1  0.64438479  0.96099697  0.02396862  1
  O  O413  1  0.64820175  0.58552617  0.23689994  1
  O  O414  1  0.65955400  0.68662600  0.07637482  1
  H  H415  1  0.66226449  0.67177716  0.14160291  1
  C  C416  1  0.67026194  0.68230194  0.02947722  1
  C  C417  1  0.67043387  0.68852289  0.11159647  1
  H  H418  1  0.68080513  0.64024798  0.10727388  1
  C  C419  1  0.66722987  0.88696329  0.18392572  1
  C  C420  1  0.66855323  0.81312231  0.20828298  1
  H  H421  1  0.67772645  0.74430196  0.11495700  1
  C  C422  1  0.67884906  0.89320176  0.14449918  1
  H  H423  1  0.67989683  0.77438877  0.19572993  1
  O  O424  1  0.68885550  0.85770898  0.12157293  1
  O  O425  1  0.68575101  0.68984837  0.02665689  1
  C  C426  1  0.71535888  0.72606529  0.19794707  1
  H  H427  1  0.71707197  0.71794845  0.15961576  1
  O  O428  1  0.70947198  0.79828941  0.21564678  1
  H  H429  1  0.72969387  0.71567695  0.20886974  1
  H  H430  1  0.70658478  0.67242381  0.20875657  1
  H  H431  1  0.69693183  0.92148445  0.21190858  1
  C  C432  1  0.64056373  0.90772340  0.22959971  1
  C  C433  1  0.69641805  0.93133088  0.24996817  1
  O  O434  1  0.67585950  0.60766158  0.21385556  1
  C  C435  1  0.66323715  0.56031008  0.23317729  1
  H  H436  1  0.68653390  0.56561838  0.21617362  1
  C  C437  1  0.72368341  0.60940322  0.01232035  1
  H  H438  1  0.71947092  0.65557761  0.03848712  1
  C  C439  1  0.65723666  0.78717941  0.24146577  1
  O  O440  1  0.69672615  0.50011717  0.24243756  1
  H  H441  1  0.71423969  0.56121173  0.00367395  1
  H  H442  1  0.53519991  0.95668003  0.35289491  1
  O  O443  1  0.52961621  0.86458476  0.30785977  1
  C  C444  1  0.53816120  0.90122929  0.33360330  1
  C  C445  1  0.58011212  0.90966898  0.38864572  1
  H  H446  1  0.58313083  0.85548824  0.41080357  1
  H  H447  1  0.58293871  0.65124555  0.42262846  1
  O  O448  1  0.58393155  0.70685664  0.42111864  1
  H  H449  1  0.59475138  0.71157522  0.43584409  1
  H  H450  1  0.59663904  0.62844193  0.27639434  1
  C  C451  1  0.58966645  0.91836889  0.34856087  1
  H  H452  1  0.58654713  0.75395048  0.35691298  1
  C  C453  1  0.59826476  0.77319758  0.33859713  1
  C  C454  1  0.59767745  0.59198230  0.30718420  1
  C  C455  1  0.60882588  0.62840993  0.33792226  1
  C  C456  1  0.60185388  0.85360044  0.32829742  1
  C  C457  1  0.61076829  0.71591964  0.32294835  1
  C  C458  1  0.61351364  0.83484496  0.47366994  1
  C  C459  1  0.61190541  0.59500465  0.38186077  1
  C  C460  1  0.61611026  0.87607367  0.30114551  1
  H  H461  1  0.61889173  0.87985572  0.45097572  1
  H  H462  1  0.55826339  0.95578581  0.43056862  1
  C  C463  1  0.56779018  0.96398812  0.40294091  1
  C  C464  1  0.61904288  0.75605960  0.46700234  1
  H  H465  1  0.59070657  0.99135223  0.45020763  1
  H  H466  1  0.61937292  0.93796461  0.29481844  1
  H  H467  1  0.61962037  0.62547409  0.40861469  1
  C  C468  1  0.60498365  0.51909874  0.38856477  1
  C  C469  1  0.59023549  0.51495397  0.31276488  1
  H  H470  1  0.59482535  0.99778073  0.29450886  1
  C  C471  1  0.61153285  0.70288151  0.49962861  1
  H  H472  1  0.55291581  0.88361443  0.33189188  1
  C  C473  1  0.58743092  0.99049424  0.32671625  1
  H  H474  1  0.62255821  0.81382368  0.37659993  1
  C  C475  1  0.64536516  0.98220358  0.41627799  1
  C  C476  1  0.64313431  0.97226034  0.46550521  1
  H  H477  1  0.73859976  0.96234806  0.25545454  1
  O  O478  1  0.74723697  0.71976501  0.35069807  1
  H  H479  1  0.66067076  0.94753761  0.35306723  1
  H  H480  1  0.73873680  0.53880172  0.47438526  1
  H  H481  1  0.72616545  0.87981901  0.49563706  1
  C  C482  1  0.69325578  0.62831081  0.39873492  1
  C  C483  1  0.66814146  0.87996362  0.41081197  1
  C  C484  1  0.70874547  0.79919720  0.26225832  1
  C  C485  1  0.62529491  0.73543582  0.29398672  1
  O  O486  1  0.74456466  0.91264501  0.31985045  1
  H  H487  1  0.63882905  0.85057046  0.41675663  1
  C  C488  1  0.72947958  0.96023303  0.38858673  1
  C  C489  1  0.72504476  0.95371902  0.43504271  1
  Zn  Zn490  1  0.71921219  0.73550638  0.35502960  1
  H  H491  1  0.72131094  0.95934219  0.29722141  1
  C  C492  1  0.73578148  0.96792147  0.29325954  1
  C  C493  1  0.66414159  0.85859752  0.45711595  1
  C  C494  1  0.73007327  0.88602568  0.45966551  1
  C  C495  1  0.65223563  0.90941961  0.48256167  1
  H  H496  1  0.69383286  0.59052170  0.43035487  1
  C  C497  1  0.62655435  0.81505296  0.28034821  1
  O  O498  1  0.67449147  0.52021185  0.48852528  1
  H  H499  1  0.68707926  0.52899341  0.49352129  1
  H  H500  1  0.64440570  0.76966726  0.37779304  1
  H  H501  1  0.74372678  0.77181692  0.45250030  1
  O  O502  1  0.70220933  0.83443208  0.35797669  1
  O  O503  1  0.66747252  0.68844542  0.46955346  1
  H  H504  1  0.68359921  0.59204256  0.37503906  1
  C  C505  1  0.73906547  0.90310720  0.36489484  1
  O  O506  1  0.71321847  0.73900695  0.28362030  1
  C  C507  1  0.67485102  0.78555360  0.48573465  1
  C  C508  1  0.63316943  0.79508264  0.39978080  1
  C  C509  1  0.64279221  0.83629603  0.25224656  1
  C  C510  1  0.74455591  0.84101053  0.39250855  1
  C  C511  1  0.73970611  0.82661170  0.43686853  1
  H  H512  1  0.69538810  0.98893367  0.37570462  1
  O  O513  1  0.70918751  0.63436085  0.38231869  1
  C  C514  1  0.70157622  0.87077160  0.28044263  1
  H  H515  1  0.65978122  0.72936799  0.25795988  1
  C  C516  1  0.65896769  0.94220063  0.39073143  1
  O  O517  1  0.62836103  0.58510726  0.48360025  1
  C  C518  1  0.69951806  0.88711455  0.32830830  1
  H  H519  1  0.63428548  0.69125696  0.27830845  1
  H  H520  1  0.68626743  0.68356591  0.41074587  1
  H  H521  1  0.67910678  0.84866767  0.39453835  1
  H  H522  1  0.65656880  0.70738260  0.45562925  1
  C  C523  1  0.69532834  0.96733771  0.33948907  1
  O  O524  1  0.62993090  0.73531427  0.43223091  1
  O  O525  1  0.54932367  0.70870039  0.70211436  1
  C  C526  1  0.56885725  0.71522592  0.71701775  1
  O  O527  1  0.57937553  0.70994277  0.68736931  1
  H  H528  1  0.57750872  0.93241735  0.66371059  1
  C  C529  1  0.58857017  0.94006494  0.68863038  1
  H  H530  1  0.58917700  0.82765662  0.57370760  1
  H  H531  1  0.60723567  0.93435738  0.58970918  1
  Zn  Zn532  1  0.61243869  0.90873607  0.70875367  1
  H  H533  1  0.59502103  0.68310222  0.55708709  1
  H  H534  1  0.61943607  0.67990350  0.69375078  1
  C  C535  1  0.59602178  0.80499609  0.54285953  1
  C  C536  1  0.59982319  0.72586121  0.53511636  1
  C  C537  1  0.60411023  0.97923524  0.56330106  1
  O  O538  1  0.60467809  0.57442237  0.52561262  1
  C  C539  1  0.58741260  0.89612968  0.73101867  1
  H  H540  1  0.60028218  0.73116859  0.74632515  1
  H  H541  1  0.61282998  0.60604799  0.74135950  1
  H  H542  1  0.52218608  0.70489645  0.71901790  1
  C  C543  1  0.53600762  0.69421089  0.73130678  1
  H  H544  1  0.53707297  0.62881486  0.74178012  1
  C  C545  1  0.60309578  0.86243171  0.51096835  1
  C  C546  1  0.59982802  0.95195319  0.51806575  1
  C  C547  1  0.61400735  0.61374223  0.50260832  1
  H  H548  1  0.63183449  0.75693287  0.63317041  1
  O  O549  1  0.74736329  0.76447259  0.53753459  1
  C  C550  1  0.62937295  0.71825182  0.70351793  1
  C  C551  1  0.74746350  0.70586061  0.56038398  1
  C  C552  1  0.63482868  0.76866689  0.66850884  1
  O  O553  1  0.64367972  0.85746848  0.59831248  1
  H  H554  1  0.64633210  0.61180989  0.68291897  1
  C  C555  1  0.64928358  0.88580683  0.63538037  1
  C  C556  1  0.64534058  0.83595486  0.67627428  1
  O  O557  1  0.65943643  0.94311551  0.63505907  1
  O  O558  1  0.64821895  0.53830913  0.58085926  1
  C  C559  1  0.65310786  0.85049607  0.71938274  1
  O  O560  1  0.66469419  0.91086234  0.72445288  1
  Zn  Zn561  1  0.65657547  0.83354769  0.53461363  1
  C  C562  1  0.65827349  0.57525699  0.68864924  1
  C  C563  1  0.65994275  0.56652536  0.60205461  1
  Zn  Zn564  1  0.65344102  0.60917374  0.51059069  1
  C  C565  1  0.66716491  0.54178366  0.65140598  1
  H  H566  1  0.67971549  0.71869287  0.70015269  1
  O  O567  1  0.66366256  0.65751180  0.57782180  1
  H  H568  1  0.66845877  0.75504213  0.64877482  1
  H  H569  1  0.67966980  0.82743499  0.68241004  1
  H  H570  1  0.67428493  0.66458898  0.59248831  1
  C  C571  1  0.71706223  0.68594104  0.55002849  1
  H  H572  1  0.69000473  0.65189030  0.53131291  1
  O  O573  1  0.69364428  0.74455538  0.64217462  1
  C  C574  1  0.68090537  0.76260479  0.66944111  1
  C  C575  1  0.70207887  0.63599192  0.55112106  1
  C  C576  1  0.70380545  0.57039981  0.57988301  1
  Zn  Zn577  1  0.71900294  0.75108823  0.66633994  1
  C  C578  1  0.71817804  0.55044011  0.60707504  1
  O  O579  1  0.72133135  0.90014156  0.69828470  1
  C  C580  1  0.74196913  0.75566062  0.70791580  1
  C  C581  1  0.73193444  0.66130951  0.57478003  1
  C  C582  1  0.73431682  0.59353888  0.60498476  1
  C  C583  1  0.71523140  0.95999988  0.71698775  1
  C  C584  1  0.67964410  0.52230057  0.73887730  1
  H  H585  1  0.71679578  0.73922812  0.52812609  1
  H  H586  1  0.73207941  0.55828761  0.53350170  1
  C  C587  1  0.68248875  0.50028901  0.66089959  1
  C  C588  1  0.66448468  0.56807213  0.73239779  1
  H  H589  1  0.74744847  0.95043249  0.53247018  1
  C  C590  1  0.74594559  0.78060497  0.66623876  1
  O  O591  1  0.74835499  0.57687350  0.62645741  1
  C  C592  1  0.63464506  0.73698575  0.74764925  1
  H  H593  1  0.74094772  0.51121663  0.73293691  1
  H  H594  1  0.72791257  0.98551025  0.56260851  1
  H  H595  1  0.71654143  0.50343145  0.63232829  1
  C  C596  1  0.73169175  0.51313888  0.50518772  1
  H  H597  1  0.70113257  0.96165847  0.51377450  1
  O  O598  1  0.68874520  0.78163504  0.50421249  1
  H  H599  1  0.61644522  0.96725911  0.93928740  1
  C  C600  1  0.57191471  0.71632073  0.76529486  1
  H  H601  1  0.52798121  0.89216929  0.77019273  1
  O  O602  1  0.50776821  0.70247547  0.89244880  1
  O  O603  1  0.54128423  0.72002626  0.78416729  1
  Zn  Zn604  1  0.57086987  0.90531261  0.78396810  1
  C  C605  1  0.55753593  0.72386213  0.79736875  1
  C  C606  1  0.56477538  0.73947115  0.84041037  1
  H  H607  1  0.55569247  0.74597582  0.87016786  1
  H  H608  1  0.56549418  0.71708862  0.93790573  1
  C  C609  1  0.52356920  0.87706939  0.84205173  1
  Zn  Zn610  1  0.51881293  0.87670346  0.94968821  1
  H  H611  1  0.51782415  0.81497090  0.84257956  1
  H  H612  1  0.53050445  0.65583520  0.85842340  1
  C  C613  1  0.52364040  0.67076891  0.89224891  1
  H  H614  1  0.52828457  0.61952135  0.91696113  1
  O  O615  1  0.53720437  0.72868486  0.92057377  1
  C  C616  1  0.52415133  0.92113828  0.88211346  1
  C  C617  1  0.52964649  0.91970951  0.80378420  1
  H  H618  1  0.56662248  0.86814877  0.89098328  1
  C  C619  1  0.53094974  0.76669521  0.95601416  1
  C  C620  1  0.57726344  0.95999480  0.84863048  1
  C  C621  1  0.57373479  0.92428259  0.89022998  1
  C  C622  1  0.57921904  0.96581880  0.93110099  1
  O  O623  1  0.57721404  0.94226881  0.97168049  1
  C  C624  1  0.51181279  0.76980143  0.97141531  1
  C  C625  1  0.58259914  0.74533217  0.85082885  1
  C  C626  1  0.57952099  0.73835116  0.93759726  1
  Zn  Zn627  1  0.56786520  0.56338117  0.87506853  1
  H  H628  1  0.58361590  0.52217863  0.75372523  1
  C  C629  1  0.59032511  0.72826163  0.77286958  1
  C  C630  1  0.61589916  0.54939621  0.80548586  1
  H  H631  1  0.60018423  0.89172919  0.80107773  1
  C  C632  1  0.59597957  0.73477244  0.81725139  1
  H  H633  1  0.60976629  0.72861860  0.82697462  1
  C  C634  1  0.58934322  0.75962283  0.89798073  1
  C  C635  1  0.60640990  0.79644748  0.90021611  1
  C  C636  1  0.61270960  0.82012808  0.94262762  1
  H  H637  1  0.61400699  0.80366789  0.86904754  1
  H  H638  1  0.59522023  0.58654269  0.91665773  1
  C  C639  1  0.59788596  0.93098901  0.77059355  1
  C  C640  1  0.61889200  0.61527805  0.77519143  1
  C  C641  1  0.58690830  0.75915532  0.97952503  1
  C  C642  1  0.60347050  0.80460959  0.98264871  1
  C  C643  1  0.59548897  0.52141518  0.92279282  1
  H  H644  1  0.61859608  0.66257051  0.94099122  1
  C  C645  1  0.56168814  0.51592506  0.93672306  1
  O  O646  1  0.55524775  0.54759149  0.96606828  1
  H  H647  1  0.55676526  0.66373588  0.99248300  1
  H  H648  1  0.61957705  0.51185980  0.87127878  1
  C  C649  1  0.62335177  0.56304228  0.84922393  1
  C  C650  1  0.53508153  0.99648546  0.80886151  1
  H  H651  1  0.55679228  0.82981277  0.97927618  1
  C  C652  1  0.54215896  0.83780949  0.98017233  1
  H  H653  1  0.62161946  0.51586748  0.95331568  1
  H  H654  1  0.62315248  0.85957950  0.81202323  1
  C  C655  1  0.52991770  0.99795534  0.89111088  1
  C  C656  1  0.61350963  0.99295058  0.76056778  1
  H  H657  1  0.62141817  0.95029454  0.84647739  1
  H  H658  1  0.66203921  0.94196457  0.79616395  1
  C  C659  1  0.66077957  0.88205891  0.91829488  1
  C  C660  1  0.65938974  0.66449698  0.99237620  1
  O  O661  1  0.70047965  0.52069611  0.90582141  1
  C  C662  1  0.68129421  0.71789945  0.79611933  1
  C  C663  1  0.71676289  0.53912169  0.89304623  1
  C  C664  1  0.73840947  0.99896339  0.84478473  1
  C  C665  1  0.72656942  0.60857165  0.78641469  1
  H  H666  1  0.66806921  0.72096000  0.77795116  1
  H  H667  1  0.73010252  0.72931461  0.89969014  1
  H  H668  1  0.71989892  0.54897801  0.85675201  1
  H  H669  1  0.72597867  0.57411913  0.75460769  1
  H  H670  1  0.69021087  0.76938266  0.77874454  1
  C  C671  1  0.74291499  0.60891053  0.80937122  1
  H  H672  1  0.74285631  0.88480847  0.75152163  1
  H  H673  1  0.68021143  0.98217314  0.76458897  1
  C  C674  1  0.70000265  0.72049837  0.86805013  1
  H  H675  1  0.68355801  0.65755445  0.95108371  1
  H  H676  1  0.67434392  0.85623212  0.91387643  1
  C  C677  1  0.63011213  0.91790681  0.82030262  1
  H  H678  1  0.64316572  0.51507342  0.77424441  1
  C  C679  1  0.67146533  0.92791792  0.76891905  1
  C  C680  1  0.63420307  0.62704543  0.85980109  1
  C  C681  1  0.66218193  0.63249880  0.91156618  1
  C  C682  1  0.63965660  0.66059254  0.98944160  1
  H  H683  1  0.70417614  0.99278697  0.98771394  1
  H  H684  1  0.65810703  0.60056648  0.76059224  1
  C  C685  1  0.74462879  0.65560644  0.85041275  1
  C  C686  1  0.73100321  0.69892968  0.86656745  1
  O  O687  1  0.68206321  0.72218554  0.84005704  1
  C  C688  1  0.64651177  0.83327274  0.92768956  1
  C  C689  1  0.63838056  0.68728661  0.82892332  1
  C  C690  1  0.71441109  0.69518566  0.84182397  1
  H  H691  1  0.64962981  0.76793192  0.93091400  1
  O  O692  1  0.69790547  0.66415732  0.77448659  1
  H  H693  1  0.64934760  0.72895660  0.83756545  1
  C  C694  1  0.63022011  0.95102168  0.93422826  1
  C  C695  1  0.65936834  0.96611390  0.91757471  1
  C  C696  1  0.64682033  0.79825574  0.75302522  1
  C  C697  1  0.72245076  0.97447604  0.76539914  1
  H  H698  1  0.65358324  0.80283529  0.78641238  1
  C  C699  1  0.63265046  0.64663961  0.94553471  1
  C  C700  1  0.64331046  0.62994706  0.90717299  1
  C  C701  1  0.62961520  0.68361439  0.78668106  1
  C  C702  1  0.66938747  0.65172117  0.95298892  1
  C  C703  1  0.74582714  0.94104705  0.81652339  1
  C  C704  1  0.73731501  0.92709613  0.77599964  1
  H  H705  1  0.67007884  0.61554070  0.88307950  1
  H  H706  1  0.72308730  0.58911530  0.91409426  1
  C  C707  1  0.71208785  0.65889762  0.79806605  1
  C  C708  1  0.63013336  0.86765353  0.93543823  1
  H  H709  1  0.67984143  0.87837462  0.78123623  1
  O  O710  1  0.70073871  0.74808079  0.90463866  1
  O  O711  1  0.68917272  0.98009320  0.90588992  1
  H  H712  1  0.64312969  0.89762004  0.83428197  1
  Zn  Zn713  1  0.68873976  0.50520726  0.80604869  1
  O  O714  1  0.63189350  0.97181872  0.78483601  1
  O  O715  1  0.73677299  0.61554141  0.99154962  1
  H  H716  1  0.76754064  0.07123982  0.20339675  1
  H  H717  1  0.75422998  0.12761649  0.01064677  1
  C  C718  1  0.75619910  0.09609420  0.22110220  1
  O  O719  1  0.75854389  0.23203998  0.04631961  1
  H  H720  1  0.75274481  0.28533624  0.21080966  1
  H  H721  1  0.76696024  0.25212016  0.06636573  1
  O  O722  1  0.76201747  0.29498251  0.14571977  1
  C  C723  1  0.75483721  0.25965894  0.17482622  1
  H  H724  1  0.75081526  0.20035440  0.06374148  1
  O  O725  1  0.83572853  0.25109985  0.00373979  1
  H  H726  1  0.84816556  0.02299344  0.01215362  1
  H  H727  1  0.87649220  0.35763102  0.02596122  1
  H  H728  1  0.76270210  0.08163233  0.35661322  1
  C  C729  1  0.75892664  0.11885222  0.26483046  1
  C  C730  1  0.75614726  0.13489448  0.36907422  1
  H  H731  1  0.77190038  0.11205006  0.27971107  1
  C  C732  1  0.75746603  0.16080807  0.41388117  1
  C  C733  1  0.76278192  0.02065578  0.44528525  1
  C  C734  1  0.76754190  0.10277223  0.44453726  1
  C  C735  1  0.77987898  0.13153900  0.47347966  1
  H  H736  1  0.78245255  0.19849633  0.47110845  1
  C  C737  1  0.79750566  0.06477394  0.68581098  1
  Zn  Zn738  1  0.76076108  0.39641325  0.67612088  1
  C  C739  1  0.78098777  0.02983802  0.67394201  1
  H  H740  1  0.80014599  0.35187539  0.68018250  1
  C  C741  1  0.79831288  0.38334490  0.64827279  1
  C  C742  1  0.78238281  0.41683746  0.63443424  1
  C  C743  1  0.80444428  0.12661292  0.66074771  1
  C  C744  1  0.77454965  0.06067296  0.63107767  1
  C  C745  1  0.79704924  0.15961788  0.62101086  1
  C  C746  1  0.78078036  0.12489865  0.60635269  1
  H  H747  1  0.80372355  0.20902107  0.60150026  1
  H  H748  1  0.77532514  0.13965137  0.57394398  1
  C  C749  1  0.81345855  0.39977554  0.61765043  1
  O  O750  1  0.82964875  0.38457344  0.62465577  1
  Zn  Zn751  1  0.82804782  0.19298165  0.67690136  1
  H  H752  1  0.80609974  0.04899216  0.71587117  1
  C  C753  1  0.81416202  0.24393693  0.73806064  1
  O  O754  1  0.80309893  0.29316877  0.73752645  1
  H  H755  1  0.79455138  0.43341591  0.72843309  1
  C  C756  1  0.76735671  0.46590757  0.73293773  1
  C  C757  1  0.81029259  0.44093666  0.57495039  1
  C  C758  1  0.77966856  0.46003115  0.59379355  1
  H  H759  1  0.75636444  0.35397960  0.57860129  1
  O  O760  1  0.80234301  0.11440285  0.52854484  1
  H  H761  1  0.80578866  0.06402979  0.54742655  1
  C  C762  1  0.83652089  0.13482791  0.73317054  1
  C  C763  1  0.84791954  0.07361758  0.74032764  1
  H  H764  1  0.85516725  0.03994482  0.71327072  1
  C  C765  1  0.75909650  0.01818939  0.61350991  1
  O  O766  1  0.87426598  0.23124565  0.64977014  1
  O  O767  1  0.75265758  0.05240391  0.57522844  1
  C  C768  1  0.86465917  0.47522203  0.67121665  1
  O  O769  1  0.75149655  0.23939403  0.73179794  1
  H  H770  1  0.76687057  0.47764648  0.58109484  1
  C  C771  1  0.85051377  0.47540246  0.70183924  1
  C  C772  1  0.79401945  0.47091494  0.56324515  1
  Zn  Zn773  1  0.84614149  0.45224775  0.58116842  1
  C  C774  1  0.85114049  0.46028402  0.74819904  1
  C  C775  1  0.78476181  0.46619624  0.74733033  1
  H  H776  1  0.83875964  0.49588087  0.68500375  1
  C  C777  1  0.82311626  0.46490886  0.54029094  1
  O  O778  1  0.82358296  0.49407743  0.50371335  1
  O  O779  1  0.86337257  0.49875774  0.63124819  1
  C  C780  1  0.78992040  0.08120569  0.50246516  1
  O  O781  1  0.87643557  0.38460686  0.57167689  1
  H  H782  1  0.88293234  0.33578563  0.57798400  1
  C  C783  1  0.88742233  0.23952401  0.67043623  1
  H  H784  1  0.87659286  0.41550399  0.60013596  1
  H  H785  1  0.89568414  0.29310593  0.67122631  1
  H  H786  1  0.89137883  0.19276999  0.69674131  1
  C  C787  1  0.88166153  0.44810945  0.69361113  1
  C  C788  1  0.89779326  0.03347128  0.67556893  1
  C  C789  1  0.88180084  0.42074874  0.73797679  1
  C  C790  1  0.89874023  0.43919001  0.67393894  1
  O  O791  1  0.91145206  0.41158323  0.69195278  1
  H  H792  1  0.91892660  0.39737618  0.59720624  1
  O  O793  1  0.91138551  0.05869675  0.66368567  1
  O  O794  1  0.90184360  0.47437848  0.62778839  1
  C  C795  1  0.91779278  0.46621535  0.60602780  1
  H  H796  1  0.92953114  0.48216004  0.62851632  1
  H  H797  1  0.92011310  0.49955218  0.57419040  1
  O  O798  1  0.88416332  0.00815782  0.68556371  1
  C  C799  1  0.82570402  0.18388176  0.76271046  1
  H  H800  1  0.87105590  0.32096251  0.82449302  1
  C  C801  1  0.86727123  0.42730413  0.76531569  1
  H  H802  1  0.77910411  0.02212917  0.75932169  1
  C  C803  1  0.75108919  0.10222421  0.97724478  1
  O  O804  1  0.86353724  0.32899088  0.84878378  1
  H  H805  1  0.83584496  0.36047667  0.81648227  1
  H  H806  1  0.86455982  0.17196834  0.79936583  1
  C  C807  1  0.83604866  0.47631421  0.77955035  1
  H  H808  1  0.86797971  0.41206402  0.80112311  1
  H  H809  1  0.83904563  0.07426571  0.85776410  1
  C  C810  1  0.84750366  0.05043736  0.78795400  1
  H  H811  1  0.86303144  0.27729337  0.86190053  1
  H  H812  1  0.85853206  0.02055372  0.95568188  1
  C  C813  1  0.76488589  0.07687244  0.94741890  1
  C  C814  1  0.80044845  0.03218209  0.86567662  1
  O  O815  1  0.80272448  0.30880326  0.84608565  1
  C  C816  1  0.81619172  0.15665550  0.98078898  1
  Zn  Zn817  1  0.81112012  0.42331805  0.90990839  1
  C  C818  1  0.78547759  0.25215381  0.86128100  1
  C  C819  1  0.79693746  0.11141174  0.87547930  1
  H  H820  1  0.80114374  0.13562577  0.90764475  1
  C  C821  1  0.80058141  0.38506716  0.85194431  1
  C  C822  1  0.78560164  0.18379730  0.97488404  1
  C  C823  1  0.80210839  0.21274055  0.98362565  1
  H  H824  1  0.78696923  0.41213111  0.85360710  1
  C  C825  1  0.81510773  0.07289667  0.96707571  1
  C  C826  1  0.79747491  0.05210387  0.95728451  1
  C  C827  1  0.78565754  0.15781954  0.84935402  1
  H  H828  1  0.77449661  0.22018451  0.97798388  1
  C  C829  1  0.78351440  0.10182392  0.96205158  1
  C  C830  1  0.78343062  0.04507480  0.79351105  1
  Zn  Zn831  1  0.76736061  0.22146790  0.80651306  1
  C  C832  1  0.77972506  0.11777932  0.81008428  1
  O  O833  1  0.77725546  0.28726097  0.88977624  1
  C  C834  1  0.82778983  0.15992028  0.81021511  1
  H  H835  1  0.81979561  0.19345102  0.83477006  1
  C  C836  1  0.83297790  0.42750061  0.81995682  1
  H  H837  1  0.82567848  0.38183713  0.99599994  1
  C  C838  1  0.81437802  0.45200392  0.83802181  1
  O  O839  1  0.81758297  0.42258103  0.98786679  1
  C  C840  1  0.76130459  0.03828367  0.90658408  1
  H  H841  1  0.80503966  0.27239662  0.99826912  1
  C  C842  1  0.83776633  0.09338674  0.82138055  1
  O  O843  1  0.82835029  0.02382564  0.96068760  1
  C  C844  1  0.84935268  0.05407824  0.97708988  1
  O  O845  1  0.85005658  0.13229134  0.98126914  1
  C  C846  1  0.83411001  0.18462665  0.98927758  1
  H  H847  1  0.81071691  0.00524149  0.88793422  1
  H  H848  1  0.82380303  0.47198098  0.99519386  1
  O  O849  1  0.87256643  0.38765184  0.95822029  1
  H  H850  1  0.77232594  0.01719330  0.88575505  1
  C  C851  1  0.87496225  0.34366632  0.98847220  1
  H  H852  1  0.87417044  0.27939084  0.97518271  1
  H  H853  1  0.88349797  0.41285524  0.85895638  1
  O  O854  1  0.89025200  0.19231549  0.81883446  1
  C  C855  1  0.87863616  0.15687523  0.80130139  1
  H  H856  1  0.89475161  0.39799506  0.75102334  1
  H  H857  1  0.88045276  0.08915246  0.79520645  1
  O  O858  1  0.89197434  0.44812682  0.84315632  1
  O  O859  1  0.85773721  0.80492030  0.09932192  1
  C  C860  1  0.85940410  0.81871059  0.06054907  1
  O  O861  1  0.84619899  0.53306453  0.00111727  1
  C  C862  1  0.86247197  0.84091755  0.01315401  1
  H  H863  1  0.83354344  0.86095368  0.00971733  1
  H  H864  1  0.88964315  0.82184163  0.04752435  1
  O  O865  1  0.89449981  0.82018271  0.01475424  1
  O  O866  1  0.77102475  0.76303842  0.38462613  1
  C  C867  1  0.77249265  0.96583217  0.46975863  1
  C  C868  1  0.75640578  0.76956645  0.37257649  1
  H  H869  1  0.76880689  0.89995844  0.46743741  1
  H  H870  1  0.75218710  0.99554736  0.42439980  1
  C  C871  1  0.76754284  0.63402105  0.61795048  1
  O  O872  1  0.76557043  0.68130899  0.58284325  1
  H  H873  1  0.78001391  0.59481780  0.61940228  1
  C  C874  1  0.77583666  0.80842965  0.68943509  1
  H  H875  1  0.78883269  0.83508435  0.68413556  1
  C  C876  1  0.80052924  0.66284750  0.67130360  1
  O  O877  1  0.79572795  0.60283896  0.68815505  1
  C  C878  1  0.77111201  0.78378696  0.73443189  1
  C  C879  1  0.76363621  0.80176039  0.65383514  1
  H  H880  1  0.76752605  0.81731230  0.61908431  1
  H  H881  1  0.76632676  0.66610239  0.65193965  1
  H  H882  1  0.80010754  0.66725160  0.63272507  1
  H  H883  1  0.80565427  0.71720960  0.69164909  1
  H  H884  1  0.81955994  0.85729055  0.63197962  1
  H  H885  1  0.81819289  0.53737111  0.73110527  1
  C  C886  1  0.79530258  0.93586075  0.52547224  1
  H  H887  1  0.79424737  0.86392423  0.52335624  1
  H  H888  1  0.83107259  0.87137718  0.71055523  1
  H  H889  1  0.76442985  0.94866607  0.67012067  1
  O  O890  1  0.82079624  0.84619645  0.66405824  1
  O  O891  1  0.83545496  0.86879718  0.74332171  1
  O  O892  1  0.83348271  0.74245207  0.62508648  1
  C  C893  1  0.83315083  0.77747575  0.66004011  1
  C  C894  1  0.84327796  0.79387029  0.74102088  1
  C  C895  1  0.84273974  0.75036716  0.69875104  1
  H  H896  1  0.85082233  0.64508790  0.66042025  1
  C  C897  1  0.85226691  0.67748855  0.69208949  1
  C  C898  1  0.86152476  0.64375641  0.72790277  1
  H  H899  1  0.87301924  0.96838230  0.74506910  1
  H  H900  1  0.79142045  0.50130504  0.53040800  1
  O  O901  1  0.75394294  0.95501859  0.62755629  1
  H  H902  1  0.86767885  0.79583439  0.65451625  1
  O  O903  1  0.80662574  0.92864240  0.55385654  1
  O  O904  1  0.77340013  0.97267606  0.69746148  1
  H  H905  1  0.86961960  0.59288012  0.72147357  1
  C  C906  1  0.75435467  0.74859644  0.74304653  1
  C  C907  1  0.78512186  0.99675484  0.50097265  1
  H  H908  1  0.88070826  0.76588495  0.70173249  1
  C  C909  1  0.88132864  0.80239913  0.67008159  1
  O  O910  1  0.89197046  0.76161412  0.63781036  1
  H  H911  1  0.88304862  0.86534977  0.67809408  1
  H  H912  1  0.90328168  0.75821701  0.65568999  1
  C  C913  1  0.90947210  0.71374065  0.74304471  1
  C  C914  1  0.90419731  0.88155776  0.73587261  1
  C  C915  1  0.91809737  0.76092875  0.70805809  1
  H  H916  1  0.91455525  0.55074216  0.69868268  1
  C  C917  1  0.92602208  0.58916334  0.71216416  1
  C  C918  1  0.91558698  0.84562873  0.70557623  1
  H  H919  1  0.92360810  0.87961239  0.68038156  1
  H  H920  1  0.93390032  0.55030728  0.73216468  1
  O  O921  1  0.93492468  0.63740318  0.68479883  1
  C  C922  1  0.93169187  0.72444654  0.67906087  1
  O  O923  1  0.93849783  0.76229880  0.65057123  1
  O  O924  1  0.91268899  0.63814596  0.74779468  1
  H  H925  1  0.90566807  0.94963942  0.73597948  1
  H  H926  1  0.75150159  0.71820049  0.77571309  1
  H  H927  1  0.77789031  0.91677457  0.75617442  1
  C  C928  1  0.86137908  0.68462057  0.77078121  1
  C  C929  1  0.85212591  0.75939529  0.77774610  1
  C  C930  1  0.82144184  0.52796789  0.76735906  1
  C  C931  1  0.87103806  0.94375421  0.78033132  1
  H  H932  1  0.75726297  0.90527200  0.83083853  1
  H  H933  1  0.75717699  0.65001887  0.87063947  1
  C  C934  1  0.78488667  0.79575827  0.77276111  1
  C  C935  1  0.75717556  0.56021510  0.78959515  1
  C  C936  1  0.78570515  0.87886613  0.78034558  1
  H  H937  1  0.80876861  0.88263028  0.87974591  1
  C  C938  1  0.77463470  0.55611556  0.80931798  1
  H  H939  1  0.79340689  0.67546045  0.79554731  1
  H  H940  1  0.78814775  0.64008232  0.90097518  1
  H  H941  1  0.80480382  0.56743922  0.95806781  1
  H  H942  1  0.77778247  0.58149100  0.84259230  1
  C  C943  1  0.79270688  0.74041861  0.80385285  1
  C  C944  1  0.80235827  0.77288369  0.84094791  1
  C  C945  1  0.81005531  0.72311177  0.87986703  1
  C  C946  1  0.82864681  0.73976539  0.88748637  1
  C  C947  1  0.80232827  0.65867507  0.90527708  1
  C  C948  1  0.81103652  0.61727099  0.93785395  1
  C  C949  1  0.82944289  0.63117602  0.94689266  1
  Zn  Zn950  1  0.83090359  0.55220929  0.83647666  1
  C  C951  1  0.80351236  0.85756837  0.84854746  1
  C  C952  1  0.79452184  0.90913810  0.81936004  1
  C  C953  1  0.80687102  0.51218880  0.80404215  1
  H  H954  1  0.83549251  0.78541751  0.86557122  1
  C  C955  1  0.83710716  0.69548229  0.92043674  1
  C  C956  1  0.84196353  0.58673582  0.97814642  1
  H  H957  1  0.83475598  0.89180958  0.92384848  1
  C  C958  1  0.86551640  0.89605803  0.87148691  1
  C  C959  1  0.86616358  0.67588617  0.85401976  1
  Zn  Zn960  1  0.86035656  0.67939361  0.95287278  1
  C  C961  1  0.87045590  0.62862974  0.88895439  1
  C  C962  1  0.86382604  0.87435332  0.92278850  1
  C  C963  1  0.84722330  0.87965761  0.94465779  1
  C  C964  1  0.85322243  0.94535899  0.84996616  1
  H  H965  1  0.85928886  0.73435905  0.85664997  1
  C  C966  1  0.86948199  0.64298041  0.81083311  1
  H  H967  1  0.85145286  0.78894571  0.81033358  1
  C  C968  1  0.84628249  0.86400908  0.99186674  1
  H  H969  1  0.75966633  0.58784178  0.93976718  1
  H  H970  1  0.75640700  0.52917702  0.90642269  1
  C  C971  1  0.85658190  0.97713772  0.80455173  1
  H  H972  1  0.84260711  0.96965175  0.86854797  1
  H  H973  1  0.79487184  0.98794597  0.94764210  1
  C  C974  1  0.79352630  0.99807837  0.82533366  1
  O  O975  1  0.76539886  0.57020280  0.91078002  1
  C  C976  1  0.78779986  0.51051782  0.78917961  1
  C  C977  1  0.75400460  0.51364197  0.75071076  1
  C  C978  1  0.88171129  0.88222603  0.79929850  1
  H  H979  1  0.96305513  0.81538051  0.92260027  1
  C  C980  1  0.87937001  0.86388769  0.84482372  1
  C  C981  1  0.91003311  0.66832579  0.87599313  1
  C  C982  1  0.88348231  0.52032224  0.84706976  1
  H  H983  1  0.88160622  0.52433522  0.92289797  1
  C  C984  1  0.95541735  0.79939098  0.89072628  1
  H  H985  1  0.89393644  0.71924763  0.80245181  1
  C  C986  1  0.87975096  0.57162375  0.81028402  1
  H  H987  1  0.92393565  0.64952165  0.87566136  1
  H  H988  1  0.88308743  0.55428820  0.77626411  1
  C  C989  1  0.89529817  0.83850813  0.77077497  1
  H  H990  1  0.90066806  0.62236193  0.86309657  1
  C  C991  1  0.88000443  0.83667984  0.99156851  1
  H  H992  1  0.89219150  0.84427709  0.92272853  1
  C  C993  1  0.87970370  0.85206225  0.94437964  1
  O  O994  1  0.90626381  0.72921651  0.89302724  1
  C  C995  1  0.89937948  0.75750183  0.77408391  1
  H  H996  1  0.94218554  0.83009450  0.88507393  1
  O  O997  1  0.95889289  0.74486723  0.86775037  1
  H  H998  1  0.88764262  0.81613461  0.86198926  1
  C  C999  1  0.87849741  0.55442480  0.88918936  1
