# generated using pymatgen
data_Zn2H33C50NO7
_symmetry_space_group_name_H-M   'P 1'
_cell_length_a   48.57346950
_cell_length_b   11.43300237
_cell_length_c   44.40284836
_cell_angle_alpha   90.00000000
_cell_angle_beta   90.00000000
_cell_angle_gamma   90.00000000
_symmetry_Int_Tables_number   1
_chemical_formula_structural   Zn2H33C50NO7
_chemical_formula_sum   'Zn32 H528 C800 N16 O112'
_cell_volume   24658.70409484
_cell_formula_units_Z   16
loop_
 _symmetry_equiv_pos_site_id
 _symmetry_equiv_pos_as_xyz
  1  'x, y, z'
loop_
 _atom_site_type_symbol
 _atom_site_label
 _atom_site_symmetry_multiplicity
 _atom_site_fract_x
 _atom_site_fract_y
 _atom_site_fract_z
 _atom_site_occupancy
  N  N0  1  0.01869914  0.03633917  0.01882616  1
  H  H1  1  0.19571494  0.24861557  0.32890903  1
  H  H2  1  0.00745729  0.01282824  0.33301946  1
  C  C3  1  0.13431427  0.10130188  0.49588679  1
  C  C4  1  0.23583851  0.35471065  0.33443621  1
  H  H5  1  0.21508671  0.38544574  0.33578201  1
  C  C6  1  0.12129979  0.37908054  0.49350875  1
  H  H7  1  0.20833191  0.02068624  0.42609982  1
  H  H8  1  0.00667853  0.34354172  0.40785080  1
  H  H9  1  0.24556550  0.31727290  0.39622412  1
  C  C10  1  0.23908555  0.30595950  0.49732768  1
  C  C11  1  0.16996263  0.44835985  0.49521673  1
  C  C12  1  0.00906110  0.08154948  0.34994587  1
  C  C13  1  0.24582471  0.24239747  0.34580618  1
  C  C14  1  0.13391469  0.06872177  0.46269836  1
  C  C15  1  0.19746719  0.19248594  0.34882393  1
  H  H16  1  0.07031974  0.42361655  0.46906591  1
  C  C17  1  0.23875589  0.37376312  0.41482019  1
  H  H18  1  0.15425848  0.33474701  0.42574838  1
  C  C19  1  0.12420571  0.35161728  0.46301922  1
  C  C20  1  0.22412840  0.17183440  0.36151484  1
  C  C21  1  0.20082791  0.42635520  0.45139047  1
  H  H22  1  0.24900503  0.08613632  0.39805059  1
  C  C23  1  0.11027820  0.01491103  0.44991852  1
  C  C24  1  0.17904821  0.09922551  0.39259403  1
  C  C25  1  0.22840641  0.10709502  0.38857508  1
  C  C26  1  0.17397023  0.16109827  0.36535018  1
  C  C27  1  0.05015571  0.31794524  0.43344165  1
  C  C28  1  0.15649741  0.09111553  0.44375889  1
  H  H29  1  0.12470778  0.18616613  0.41718979  1
  H  H30  1  0.02963957  0.34495351  0.43975509  1
  C  C31  1  0.08246649  0.20075447  0.40220221  1
  C  C32  1  0.00727122  0.26957489  0.39275151  1
  C  C33  1  0.21200160  0.35871400  0.42674657  1
  C  C34  1  0.03157359  0.20346372  0.38765985  1
  H  H35  1  0.08698349  0.14081562  0.38392739  1
  C  C36  1  0.09978247  0.31267314  0.44441825  1
  C  C37  1  0.05536162  0.23983752  0.40799299  1
  H  H38  1  0.19828321  0.28455338  0.41719676  1
  C  C39  1  0.20495600  0.06985877  0.40506017  1
  C  C40  1  0.00322110  0.16672546  0.47927240  1
  C  C41  1  0.15046227  0.36124365  0.44914847  1
  C  C42  1  0.15546781  0.06006300  0.41314313  1
  C  C43  1  0.07202739  0.35605628  0.45153384  1
  C  C44  1  0.10439762  0.23495582  0.42034617  1
  H  H45  1  0.05123156  0.05484746  0.36527556  1
  C  C46  1  0.03203604  0.10770469  0.36690432  1
  H  H47  1  0.15319374  0.19394822  0.35980889  1
  H  H48  1  0.23494319  0.35443176  0.47633526  1
  C  C49  1  0.17223035  0.41072682  0.46507852  1
  H  H50  1  0.17998035  0.13625955  0.49190511  1
  H  H51  1  0.17408348  0.13661783  0.45300636  1
  H  H52  1  0.06208462  0.05060773  0.42763387  1
  H  H53  1  0.09145958  0.00751156  0.46313612  1
  C  C54  1  0.23479586  0.00312400  0.48190443  1
  C  C55  1  0.02349060  0.08611683  0.49482898  1
  H  H56  1  0.22543718  0.06133120  0.49873335  1
  C  C57  1  0.08337991  0.29174780  0.62310188  1
  C  C58  1  0.06931764  0.28313431  0.56798431  1
  H  H59  1  0.06342268  0.18806918  0.56905349  1
  C  C60  1  0.08729343  0.16679558  0.62183057  1
  H  H61  1  0.08837919  0.12353171  0.59988711  1
  H  H62  1  0.13622871  0.26933580  0.64833206  1
  C  C63  1  0.07618570  0.35198069  0.59421514  1
  C  C64  1  0.09407215  0.10769514  0.64820806  1
  H  H65  1  0.12712537  0.28908216  0.60635443  1
  C  C66  1  0.13120796  0.35200283  0.56067008  1
  C  C67  1  0.13780524  0.34959879  0.59189179  1
  H  H68  1  0.11305277  0.31096272  0.55110824  1
  C  C69  1  0.11628970  0.09108088  0.54653481  1
  C  C70  1  0.14340524  0.10834287  0.55790426  1
  C  C71  1  0.15117390  0.08061300  0.58994136  1
  H  H72  1  0.19607024  0.16622998  0.64633274  1
  H  H73  1  0.17969333  0.22752243  0.59589907  1
  C  C74  1  0.17019080  0.14922046  0.60582471  1
  C  C75  1  0.08389889  0.35288218  0.65184550  1
  C  C76  1  0.02841995  0.10305163  0.52637535  1
  C  C77  1  0.16592292  0.13836429  0.53758168  1
  H  H78  1  0.18687863  0.16419029  0.54640006  1
  C  C79  1  0.11112300  0.09099521  0.51513396  1
  C  C80  1  0.06856235  0.33498864  0.54009673  1
  C  C81  1  0.14395554  0.42668908  0.50951237  1
  H  H82  1  0.06311467  0.28394879  0.52021903  1
  C  C83  1  0.16415016  0.40850538  0.63832134  1
  C  C84  1  0.15909253  0.41312555  0.60505476  1
  C  C85  1  0.14802877  0.42345108  0.54301345  1
  H  H86  1  0.00909303  0.32397735  0.50765822  1
  C  C87  1  0.15344530  0.32192691  0.65838764  1
  C  C88  1  0.17849625  0.12134174  0.63491530  1
  H  H89  1  0.08058750  0.44486050  0.65256970  1
  H  H90  1  0.08869560  0.07793421  0.50823759  1
  C  C91  1  0.16180493  0.13054612  0.50686870  1
  H  H92  1  0.10196191  0.35937831  0.50540679  1
  C  C93  1  0.04288628  0.02058919  0.54333212  1
  H  H94  1  0.09870321  0.07722799  0.56138825  1
  C  C95  1  0.08139818  0.47485412  0.59227319  1
  H  H96  1  0.04272877  0.02750648  0.56717593  1
  H  H97  1  0.02073305  0.18256619  0.53752446  1
  H  H98  1  0.09823078  0.01320800  0.64920695  1
  C  C99  1  0.24890336  0.17419463  0.54686609  1
  C  C100  1  0.07059298  0.46030370  0.53839958  1
  C  C101  1  0.16655118  0.01905589  0.64700743  1
  N  N102  1  0.22373216  0.20906163  0.54180016  1
  H  H103  1  0.18705175  0.47959181  0.50880545  1
  H  H104  1  0.19678793  0.29801586  0.51731595  1
  C  C105  1  0.21889247  0.27719517  0.51819440  1
  C  C106  1  0.17116158  0.48986005  0.55450253  1
  C  C107  1  0.17655925  0.48416205  0.58584782  1
  C  C108  1  0.18390167  0.48638231  0.65117920  1
  O  O109  1  0.09747113  0.00180968  0.70464470  1
  O  O110  1  0.20470712  0.01789093  0.77478817  1
  C  C111  1  0.05295571  0.04237699  0.82620044  1
  C  C112  1  0.09216079  0.17196750  0.67593266  1
  C  C113  1  0.08842519  0.29174881  0.67853973  1
  Zn  Zn114  1  0.18855693  0.10605227  0.73651874  1
  C  C115  1  0.12620957  0.44091031  0.74698562  1
  H  H116  1  0.08882934  0.33205827  0.70060286  1
  C  C117  1  0.16296774  0.30241000  0.68757116  1
  C  C118  1  0.18444541  0.37361914  0.69841491  1
  H  H119  1  0.15412346  0.22821076  0.70155021  1
  O  O120  1  0.11680964  0.29594885  0.79536453  1
  C  C121  1  0.19469563  0.36651013  0.73114528  1
  O  O122  1  0.18477453  0.28075791  0.74693224  1
  O  O123  1  0.09045583  0.16572385  0.72960870  1
  C  C124  1  0.09732559  0.36880754  0.78876103  1
  O  O125  1  0.18120215  0.31089040  0.81437943  1
  O  O126  1  0.07452876  0.36538306  0.80208057  1
  C  C127  1  0.09415943  0.10984327  0.70541423  1
  H  H128  1  0.14278262  0.38935060  0.75665399  1
  C  C129  1  0.10101542  0.45048205  0.76228854  1
  Zn  Zn130  1  0.20806276  0.38913445  0.79170671  1
  O  O131  1  0.20861353  0.44051288  0.74426777  1
  Zn  Zn132  1  0.11350732  0.14073011  0.76966906  1
  C  C133  1  0.24361268  0.08035946  0.81464341  1
  O  O134  1  0.14721162  0.05171799  0.74856568  1
  O  O135  1  0.19215112  0.04192412  0.69170365  1
  H  H136  1  0.05316246  0.04946920  0.80093580  1
  C  C137  1  0.21816813  0.04244080  0.82643012  1
  H  H138  1  0.19377839  0.29875268  0.83135622  1
  H  H139  1  0.15916554  0.01771989  0.76450111  1
  H  H140  1  0.24631858  0.08766131  0.79084606  1
  H  H141  1  0.00983249  0.08283466  0.83166848  1
  C  C142  1  0.19707603  0.01964699  0.80196843  1
  C  C143  1  0.19244976  0.46963304  0.68052973  1
  H  H144  1  0.18974200  0.00509551  0.86185027  1
  Zn  Zn145  1  0.11676745  0.48086461  0.90240651  1
  H  H146  1  0.23303048  0.00404720  0.96412666  1
  O  O147  1  0.23448812  0.40795334  0.83426362  1
  C  C148  1  0.19556076  0.40904314  0.95307386  1
  C  C149  1  0.00255113  0.03874637  0.89069081  1
  H  H150  1  0.04295802  0.07981678  0.98348840  1
  C  C151  1  0.00181026  0.17368654  0.98376617  1
  C  C152  1  0.02254866  0.09320882  0.99319846  1
  H  H153  1  0.21892527  0.45357027  0.99305341  1
  H  H154  1  0.00637357  0.22120053  0.96263461  1
  C  C155  1  0.24526794  0.41955079  0.95274813  1
  H  H156  1  0.22793778  0.05299374  0.90037611  1
  O  O157  1  0.02230589  0.43456010  0.84831584  1
  O  O158  1  0.17349590  0.30768491  0.87640189  1
  C  C159  1  0.02953482  0.03232641  0.87340204  1
  C  C160  1  0.02551910  0.47720918  0.94844503  1
  C  C161  1  0.21051636  0.03190280  0.85634121  1
  O  O162  1  0.06861289  0.33381987  0.89108326  1
  H  H163  1  0.11569725  0.32421070  0.86974912  1
  C  C164  1  0.06195906  0.39696047  0.91423554  1
  C  C165  1  0.24519135  0.37224124  0.92304005  1
  O  O166  1  0.08006426  0.46366256  0.92654134  1
  C  C167  1  0.17246870  0.34391693  0.90219846  1
  O  O168  1  0.15039814  0.36108667  0.91687469  1
  H  H169  1  0.17531609  0.41303313  0.96520627  1
  H  H170  1  0.02134710  0.24623858  0.89633556  1
  C  C171  1  0.02906144  0.05471584  0.84266276  1
  Zn  Zn172  1  0.14895729  0.37796478  0.83529088  1
  O  O173  1  0.11515053  0.39664477  0.85918171  1
  C  C174  1  0.19671291  0.36761057  0.92264893  1
  H  H175  1  0.21976543  0.31489679  0.88296586  1
  C  C176  1  0.22005719  0.43062428  0.96865368  1
  Zn  Zn177  1  0.07015758  0.41360097  0.84775287  1
  C  C178  1  0.22099914  0.34585984  0.90794512  1
  C  C179  1  0.01500616  0.31390373  0.91266714  1
  C  C180  1  0.23124467  0.05832971  0.87669958  1
  C  C181  1  0.03327280  0.39853038  0.92502336  1
  H  H182  1  0.24608312  0.22776969  0.96484386  1
  H  H183  1  0.02114573  0.82881500  0.00587840  1
  H  H184  1  0.24867164  0.50025993  0.30749170  1
  H  H185  1  0.11275954  0.50550748  0.42113983  1
  C  C186  1  0.12532396  0.58225334  0.42504627  1
  H  H187  1  0.15935644  0.51217818  0.39871911  1
  C  C188  1  0.06067464  0.96742869  0.41446107  1
  H  H189  1  0.13454030  0.96322334  0.37597637  1
  C  C190  1  0.13446069  0.99224791  0.39998304  1
  C  C191  1  0.03516695  0.99016863  0.48011190  1
  H  H192  1  0.03144623  0.97743420  0.45562942  1
  H  H193  1  0.15050231  0.63431779  0.48896301  1
  C  C194  1  0.18703107  0.74048040  0.48449318  1
  C  C195  1  0.16594013  0.69934389  0.41410200  1
  C  C196  1  0.20109548  0.84252802  0.49524481  1
  C  C197  1  0.16300073  0.70268567  0.49783644  1
  C  C198  1  0.11192520  0.97405499  0.41975026  1
  C  C199  1  0.13476234  0.76166881  0.45285266  1
  H  H200  1  0.06220400  0.73180258  0.43670349  1
  C  C201  1  0.09157478  0.64068295  0.46790747  1
  H  H202  1  0.17809249  0.89406507  0.38601416  1
  C  C203  1  0.19426498  0.83252756  0.38247192  1
  H  H204  1  0.01615846  0.96739967  0.40871479  1
  H  H205  1  0.20881009  0.57479380  0.47974012  1
  H  H206  1  0.06281679  0.66819085  0.37138717  1
  H  H207  1  0.20999117  0.55036400  0.40391008  1
  C  C208  1  0.04217309  0.56922432  0.49933316  1
  H  H209  1  0.19264061  0.69587395  0.46265369  1
  H  H210  1  0.10622956  0.74956322  0.39051432  1
  C  C211  1  0.08629909  0.79529013  0.39464473  1
  C  C212  1  0.22469648  0.88773073  0.47724254  1
  C  C213  1  0.01142572  0.77120529  0.37107476  1
  C  C214  1  0.03642278  0.81296707  0.38701398  1
  C  C215  1  0.01284074  0.68857259  0.46526234  1
  C  C216  1  0.21800202  0.52148146  0.46248998  1
  C  C217  1  0.09300339  0.57932917  0.49609232  1
  C  C218  1  0.21805244  0.86128046  0.36571513  1
  C  C219  1  0.03566823  0.92237400  0.40380439  1
  C  C220  1  0.15745703  0.78851444  0.43438862  1
  C  C221  1  0.21329056  0.63823229  0.39265520  1
  C  C222  1  0.08535956  0.90413576  0.40945758  1
  H  H223  1  0.16720083  0.87763105  0.43713313  1
  H  H224  1  0.12827141  0.82726958  0.47034692  1
  H  H225  1  0.22259597  0.95096391  0.35766167  1
  H  H226  1  0.00858811  0.57401131  0.42430883  1
  H  H227  1  0.02462045  0.59676811  0.35964418  1
  C  C228  1  0.19245033  0.72206674  0.39663888  1
  C  C229  1  0.15128192  0.58939856  0.41095953  1
  C  C230  1  0.23165905  0.82115679  0.45036688  1
  C  C231  1  0.06548157  0.67790389  0.45675959  1
  C  C232  1  0.23677556  0.77234922  0.36040429  1
  H  H233  1  0.21786493  0.74619259  0.44426082  1
  C  C234  1  0.06193385  0.74986337  0.38345688  1
  C  C235  1  0.23520398  0.65926238  0.37282882  1
  C  C236  1  0.00836732  0.65982383  0.35762604  1
  H  H237  1  0.06689912  0.85436410  0.48428605  1
  C  C238  1  0.24353837  0.54106399  0.44996022  1
  C  C239  1  0.04141394  0.64079937  0.47318953  1
  C  C240  1  0.11828768  0.66233992  0.44826688  1
  C  C241  1  0.05442069  0.92033611  0.49634007  1
  C  C242  1  0.07715607  0.81935557  0.57568318  1
  C  C243  1  0.10127211  0.75823364  0.58658324  1
  C  C244  1  0.10434159  0.72532638  0.61947451  1
  H  H245  1  0.05859997  0.83364339  0.58784431  1
  H  H246  1  0.07179331  0.84157018  0.63631395  1
  C  C247  1  0.08635832  0.77240531  0.64188714  1
  C  C248  1  0.12261132  0.72629600  0.56734596  1
  H  H249  1  0.13888486  0.67112316  0.57638046  1
  C  C250  1  0.12570051  0.64835229  0.62886910  1
  C  C251  1  0.07822108  0.85023364  0.54512508  1
  C  C252  1  0.12523886  0.77007437  0.53771808  1
  H  H253  1  0.07650747  0.62398328  0.56092562  1
  C  C254  1  0.10154444  0.82656728  0.52562740  1
  H  H255  1  0.13845768  0.60975519  0.61273974  1
  H  H256  1  0.13657720  0.87684780  0.64433861  1
  C  C257  1  0.15445576  0.76701976  0.52369415  1
  H  H258  1  0.18286261  0.55041632  0.53982199  1
  C  C259  1  0.19464139  0.89949707  0.52303588  1
  C  C260  1  0.17066642  0.86018897  0.53608250  1
  H  H261  1  0.02262831  0.54740508  0.51176384  1
  C  C262  1  0.05743158  0.93034814  0.52792578  1
  C  C263  1  0.14444277  0.95414713  0.63218724  1
  H  H264  1  0.10365211  0.86482371  0.50394431  1
  C  C265  1  0.07521093  0.52791255  0.56456270  1
  H  H266  1  0.19368741  0.53688735  0.59495722  1
  H  H267  1  0.12100445  0.93532712  0.59102712  1
  H  H268  1  0.16384657  0.90523040  0.55809082  1
  H  H269  1  0.19129100  0.56100893  0.63688494  1
  C  C270  1  0.06868284  0.53188739  0.50976780  1
  H  H271  1  0.08981854  0.52757592  0.61126263  1
  C  C272  1  0.13708934  0.98467878  0.60444206  1
  H  H273  1  0.20635201  0.97811746  0.53133375  1
  C  C274  1  0.12625044  0.60996447  0.65866029  1
  H  H275  1  0.14172538  0.53925379  0.66444079  1
  H  H276  1  0.00748328  0.80536233  0.50613050  1
  H  H277  1  0.11348583  0.56305895  0.50568422  1
  O  O278  1  0.09722824  0.99023120  0.79527414  1
  H  H279  1  0.06021472  0.51687339  0.76633837  1
  H  H280  1  0.20762292  0.53132515  0.68890951  1
  C  C281  1  0.17484102  0.97828610  0.67717068  1
  H  H282  1  0.06372590  0.63861481  0.71763871  1
  C  C283  1  0.08652513  0.72918953  0.67205627  1
  C  C284  1  0.10578828  0.64081071  0.68085457  1
  H  H285  1  0.07035141  0.76240565  0.68758841  1
  O  O286  1  0.16582557  0.88605004  0.68965235  1
  H  H287  1  0.21177476  0.80268398  0.81870597  1
  O  O288  1  0.14081002  0.81442327  0.75987578  1
  O  O289  1  0.17195489  0.69189053  0.80141147  1
  Zn  Zn290  1  0.14540553  0.83585408  0.80494655  1
  H  H291  1  0.13502526  0.73715629  0.75999796  1
  Zn  Zn292  1  0.13266972  0.90300157  0.72022501  1
  O  O293  1  0.17351714  0.99662447  0.80918541  1
  C  C294  1  0.10525219  0.57249273  0.70988364  1
  C  C295  1  0.10046861  0.97340821  0.82274653  1
  C  C296  1  0.17455489  0.63217255  0.82441788  1
  C  C297  1  0.08054261  0.58550395  0.72736412  1
  C  C298  1  0.12848727  0.50701415  0.72134713  1
  H  H299  1  0.14803532  0.52120030  0.70879815  1
  C  C300  1  0.07856376  0.51805559  0.75258982  1
  O  O301  1  0.15675428  0.56041270  0.83159149  1
  C  C302  1  0.00137602  0.98941567  0.92008800  1
  C  C303  1  0.00470744  0.78828050  0.99128023  1
  H  H304  1  0.09530341  0.92517043  0.88196383  1
  C  C305  1  0.21858291  0.62892927  0.89484189  1
  O  O306  1  0.12215689  0.93533359  0.83355183  1
  H  H307  1  0.10492639  0.84690367  0.96928904  1
  C  C308  1  0.07499851  0.99683112  0.84268095  1
  C  C309  1  0.02311249  0.54443295  0.85259580  1
  H  H310  1  0.07589074  0.69201973  0.88741026  1
  O  O311  1  0.12438960  0.66061131  0.89593212  1
  H  H312  1  0.24728016  0.86933813  0.85935304  1
  H  H313  1  0.24605393  0.62688959  0.94740018  1
  H  H314  1  0.01871056  0.93568165  0.92915827  1
  H  H315  1  0.03994425  0.53701248  0.95770519  1
  C  C316  1  0.19791657  0.60809258  0.87424299  1
  C  C317  1  0.07122779  0.72151696  0.90890799  1
  H  H318  1  0.02723472  0.67239801  0.90715239  1
  H  H319  1  0.05137999  0.97679623  0.91612344  1
  C  C320  1  0.23733599  0.71550171  0.88646528  1
  O  O321  1  0.04498314  0.59259127  0.84828685  1
  H  H322  1  0.18269856  0.54739268  0.88027874  1
  C  C323  1  0.03870967  0.77185048  0.94917003  1
  C  C324  1  0.08685943  0.81831070  0.95619818  1
  C  C325  1  0.21520534  0.75300008  0.83951218  1
  H  H326  1  0.21968521  0.58170022  0.91583978  1
  C  C327  1  0.01020302  0.75330911  0.96132637  1
  C  C328  1  0.07690035  0.97390262  0.87464005  1
  O  O329  1  0.13944395  0.79472101  0.92722208  1
  C  C330  1  0.12067099  0.73958070  0.91648223  1
  C  C331  1  0.23455437  0.79004943  0.86095027  1
  H  H332  1  0.05473467  0.87273748  0.98760741  1
  H  H333  1  0.01490156  0.79208253  0.86249792  1
  C  C334  1  0.19660380  0.66297972  0.84565650  1
  C  C335  1  0.05242534  0.99254389  0.89044841  1
  C  C336  1  0.09220660  0.76026954  0.92866473  1
  C  C337  1  0.05974003  0.82728943  0.96687527  1
  C  C338  1  0.04436730  0.71701880  0.91953142  1
  C  C339  1  0.40404902  0.10796205  0.06989485  1
  C  C340  1  0.38235472  0.16754329  0.08482745  1
  C  C341  1  0.38090739  0.17505757  0.11829644  1
  C  C342  1  0.39555620  0.10062203  0.13783754  1
  H  H343  1  0.34634899  0.28760142  0.07941030  1
  C  C344  1  0.36179314  0.23347117  0.06858080  1
  C  C345  1  0.36082867  0.22038621  0.03727527  1
  C  C346  1  0.40311059  0.09468526  0.03870006  1
  H  H347  1  0.34311943  0.26602556  0.02739200  1
  C  C348  1  0.36387330  0.25527098  0.13381990  1
  H  H349  1  0.35274148  0.31910294  0.12001094  1
  C  C350  1  0.43557840  0.30230277  0.03830437  1
  H  H351  1  0.47164206  0.19680059  0.03942030  1
  H  H352  1  0.42681958  0.27767237  0.06074280  1
  C  C353  1  0.38210667  0.15771328  0.02184718  1
  C  C354  1  0.45968171  0.25778534  0.02579428  1
  N  N355  1  0.29814638  0.38986447  0.09623836  1
  C  C356  1  0.30296659  0.33878751  0.12179110  1
  C  C357  1  0.42293211  0.39101802  0.02021569  1
  C  C358  1  0.29160654  0.31467509  0.07321348  1
  C  C359  1  0.39480078  0.43814331  0.03263476  1
  C  C360  1  0.29949928  0.13506097  0.10318331  1
  C  C361  1  0.30569050  0.21392206  0.12585429  1
  C  C362  1  0.29085027  0.19532807  0.07652131  1
  H  H363  1  0.28325678  0.14480692  0.05642799  1
  H  H364  1  0.28637640  0.35387913  0.05099885  1
  H  H365  1  0.29787271  0.04455939  0.10627735  1
  H  H366  1  0.31093926  0.40398915  0.13767192  1
  H  H367  1  0.42091556  0.06456305  0.08322648  1
  C  C368  1  0.34602239  0.48352274  0.02293818  1
  H  H369  1  0.41837317  0.04072249  0.02561677  1
  C  C370  1  0.32076509  0.48042460  0.00412154  1
  C  C371  1  0.37300823  0.45174864  0.01171612  1
  H  H372  1  0.30942197  0.17729061  0.14726229  1
  H  H373  1  0.41069746  0.47264792  0.07831101  1
  C  C374  1  0.39190388  0.46973074  0.06305517  1
  N  N375  1  0.29687328  0.12133729  0.01065001  1
  H  H376  1  0.48477929  0.05389914  0.00124670  1
  H  H377  1  0.28819373  0.28377530  0.00200873  1
  H  H378  1  0.41009269  0.03009669  0.12945682  1
  H  H379  1  0.34247744  0.02529442  0.15749860  1
  H  H380  1  0.40842564  0.47099275  0.11258146  1
  C  C381  1  0.38957957  0.49599724  0.12415003  1
  C  C382  1  0.36314961  0.27650111  0.16401267  1
  C  C383  1  0.29105877  0.00766389  0.00858004  1
  H  H384  1  0.40630418  0.49728042  0.16884282  1
  C  C385  1  0.39471168  0.11578798  0.16848466  1
  H  H386  1  0.35171038  0.35268941  0.17262527  1
  C  C387  1  0.37946899  0.20396401  0.18296345  1
  H  H388  1  0.41855987  0.18366535  0.30902582  1
  O  O389  1  0.36641110  0.17699364  0.30734710  1
  C  C390  1  0.38068954  0.22861466  0.21611788  1
  O  O391  1  0.39264691  0.15565314  0.23204955  1
  O  O392  1  0.36905913  0.31476376  0.22893236  1
  Zn  Zn393  1  0.36693668  0.32056227  0.27699319  1
  C  C394  1  0.28249267  0.37941409  0.31426394  1
  O  O395  1  0.32804792  0.39804274  0.29670444  1
  C  C396  1  0.30440206  0.43824577  0.29668840  1
  C  C397  1  0.29203510  0.27217910  0.32713884  1
  H  H398  1  0.31362545  0.23785329  0.32433710  1
  O  O399  1  0.39436507  0.45432933  0.29274441  1
  C  C400  1  0.25493266  0.41794981  0.31788389  1
  H  H401  1  0.40864040  0.05931696  0.18011617  1
  H  H402  1  0.33258386  0.02223014  0.21441240  1
  C  C403  1  0.41814681  0.20883182  0.33287617  1
  C  C404  1  0.49181672  0.01167424  0.31877177  1
  H  H405  1  0.48403729  0.32493463  0.35011757  1
  C  C406  1  0.39352290  0.22193234  0.34944534  1
  O  O407  1  0.30038774  0.11177094  0.42448163  1
  C  C408  1  0.47232057  0.26527219  0.42726018  1
  H  H409  1  0.46259329  0.19759135  0.33919534  1
  H  H410  1  0.28129987  0.12358638  0.35477972  1
  C  C411  1  0.27380941  0.20573424  0.34325874  1
  H  H412  1  0.29032630  0.32120464  0.39530487  1
  H  H413  1  0.44437272  0.38021832  0.45468357  1
  C  C414  1  0.49811984  0.30257323  0.43863525  1
  H  H415  1  0.26182869  0.13195777  0.46675376  1
  C  C416  1  0.48234412  0.02603896  0.34929873  1
  C  C417  1  0.44213902  0.25221322  0.37985339  1
  C  C418  1  0.25385594  0.04423898  0.46140861  1
  H  H419  1  0.49691827  0.06419257  0.39398145  1
  C  C420  1  0.25514816  0.46765419  0.42681161  1
  H  H421  1  0.46075950  0.00323681  0.35620010  1
  O  O422  1  0.34572398  0.19399395  0.35056135  1
  C  C423  1  0.32439083  0.44226203  0.38977945  1
  C  C424  1  0.28841972  0.02103230  0.41965267  1
  C  C425  1  0.44809129  0.47439848  0.45503454  1
  C  C426  1  0.48921873  0.31572085  0.37419938  1
  C  C427  1  0.41632489  0.26521974  0.39654473  1
  C  C428  1  0.36712627  0.20227433  0.33477004  1
  H  H429  1  0.41426057  0.28735330  0.41999431  1
  H  H430  1  0.37098278  0.24835226  0.39028317  1
  C  C431  1  0.29789338  0.40733393  0.39940203  1
  C  C432  1  0.44215803  0.22156752  0.34884144  1
  Zn  Zn433  1  0.33335253  0.04164289  0.38037600  1
  H  H434  1  0.47991700  0.46920599  0.49039417  1
  H  H435  1  0.45573942  0.22350166  0.44084737  1
  H  H436  1  0.33799169  0.37964729  0.37741055  1
  C  C437  1  0.39200938  0.24602110  0.38128526  1
  C  C438  1  0.46898022  0.27550978  0.39547378  1
  H  H439  1  0.42243441  0.06015585  0.39406959  1
  C  C440  1  0.45406988  0.02398836  0.42785717  1
  C  C441  1  0.28205717  0.49738737  0.41274871  1
  H  H442  1  0.46952166  0.06487553  0.41309452  1
  C  C443  1  0.42660332  0.02786445  0.41789790  1
  H  H444  1  0.28338281  0.29389174  0.48526291  1
  H  H445  1  0.46156440  0.12731803  0.49886556  1
  C  C446  1  0.47556237  0.27641810  0.52570857  1
  H  H447  1  0.45498708  0.29648276  0.53533452  1
  H  H448  1  0.48020072  0.10266835  0.62846754  1
  H  H449  1  0.49667244  0.14593585  0.57209597  1
  C  C450  1  0.49294604  0.04305061  0.61542297  1
  C  C451  1  0.27105442  0.19988762  0.52677782  1
  H  H452  1  0.29097591  0.16429122  0.53375664  1
  C  C453  1  0.48029712  0.18078804  0.50659087  1
  C  C454  1  0.26701612  0.26948072  0.50131756  1
  H  H455  1  0.25064078  0.11244704  0.56627998  1
  H  H456  1  0.49669200  0.42447102  0.54908008  1
  C  C457  1  0.49883790  0.34577404  0.53329690  1
  C  C458  1  0.25772323  0.42341011  0.82152284  1
  O  O459  1  0.25965231  0.39250474  0.79553580  1
  H  H460  1  0.31329952  0.44606435  0.80371838  1
  C  C461  1  0.30932618  0.47549708  0.82681785  1
  H  H462  1  0.28082474  0.16565170  0.82774206  1
  C  C463  1  0.28012214  0.19512930  0.99699460  1
  C  C464  1  0.39460973  0.00915674  0.93394671  1
  H  H465  1  0.37455792  0.02222515  0.92588511  1
  H  H466  1  0.26697558  0.00913422  0.92501118  1
  H  H467  1  0.48197595  0.31289198  0.84534474  1
  C  C468  1  0.46104011  0.43663550  0.89034279  1
  C  C469  1  0.37794390  0.16853683  0.98795611  1
  C  C470  1  0.29691051  0.39459049  0.96021310  1
  C  C471  1  0.27162634  0.44288394  0.97055499  1
  C  C472  1  0.47923592  0.48571284  0.86558577  1
  C  C473  1  0.26298196  0.12236558  0.83481653  1
  C  C474  1  0.25043786  0.03975086  0.97769388  1
  C  C475  1  0.25717775  0.15946728  0.97813453  1
  H  H476  1  0.37648981  0.43923729  0.98745051  1
  C  C477  1  0.44578430  0.29293606  0.92596536  1
  C  C478  1  0.45911684  0.38950756  0.98240019  1
  H  H479  1  0.33615241  0.11061232  0.98148099  1
  C  C480  1  0.41949789  0.34777580  0.92878560  1
  C  C481  1  0.46950709  0.03877538  0.90792525  1
  C  C482  1  0.49645284  0.23172073  0.98596967  1
  C  C483  1  0.28067558  0.08429610  0.91860328  1
  C  C484  1  0.28191692  0.47067608  0.83822369  1
  H  H485  1  0.36667994  0.34397554  0.90931090  1
  H  H486  1  0.34095867  0.37592358  0.96931499  1
  C  C487  1  0.41522764  0.46153526  0.91499727  1
  H  H488  1  0.42024603  0.23437576  0.98429797  1
  C  C489  1  0.25577171  0.10859925  0.86604232  1
  H  H490  1  0.30573685  0.07409439  0.95720613  1
  H  H491  1  0.46593130  0.42801939  0.96103158  1
  C  C492  1  0.35226525  0.16483477  0.97186628  1
  C  C493  1  0.37025909  0.29205483  0.92894777  1
  H  H494  1  0.44728783  0.20992764  0.93963775  1
  C  C495  1  0.29646564  0.22494273  0.87858936  1
  H  H496  1  0.48630427  0.28092813  0.90228552  1
  C  C497  1  0.30505230  0.11405153  0.93387372  1
  C  C498  1  0.49350710  0.10067423  0.91631528  1
  C  C499  1  0.48754320  0.40709966  0.84232321  1
  C  C500  1  0.32048552  0.25167139  0.89480826  1
  C  C501  1  0.34994850  0.21799155  0.94365003  1
  C  C502  1  0.32158569  0.41251252  0.97703403  1
  C  C503  1  0.39612800  0.28339159  0.94409911  1
  C  C504  1  0.39999830  0.22844273  0.97254905  1
  H  H505  1  0.29666274  0.33174163  0.93982602  1
  C  C506  1  0.47007606  0.29074095  0.99752569  1
  C  C507  1  0.46577831  0.32837226  0.90511474  1
  H  H508  1  0.29506273  0.26890397  0.85593890  1
  H  H509  1  0.33503976  0.32016285  0.88540256  1
  C  C510  1  0.27731985  0.13929520  0.88988044  1
  H  H511  1  0.49628204  0.13499949  0.93959727  1
  C  C512  1  0.32434266  0.19866302  0.92313519  1
  C  C513  1  0.43416570  0.43799407  0.99288451  1
  H  H514  1  0.26410646  0.34766798  0.91164800  1
  H  H515  1  0.41331816  0.08959688  0.89300007  1
  C  C516  1  0.49033207  0.00920551  0.85857344  1
  C  C517  1  0.44421018  0.02954014  0.92836361  1
  C  C518  1  0.41707636  0.04345114  0.91557191  1
  C  C519  1  0.41948099  0.77365258  0.05204030  1
  C  C520  1  0.39740059  0.73072404  0.07063163  1
  C  C521  1  0.39556784  0.75213362  0.10103427  1
  C  C522  1  0.42022355  0.84054802  0.14796799  1
  C  C523  1  0.41779644  0.81928734  0.11404623  1
  H  H524  1  0.27999938  0.74941826  0.14352774  1
  C  C525  1  0.43875041  0.85604196  0.06426642  1
  C  C526  1  0.31311894  0.78615979  0.09571449  1
  C  C527  1  0.34187250  0.85080164  0.05524939  1
  H  H528  1  0.30960267  0.71358666  0.04971285  1
  H  H529  1  0.29513890  0.74107018  0.10522890  1
  C  C530  1  0.31983842  0.77702548  0.06497963  1
  H  H531  1  0.37929249  0.68562997  0.06048318  1
  C  C532  1  0.32632025  0.86766810  0.11537100  1
  C  C533  1  0.31603319  0.86983910  0.14753017  1
  C  C534  1  0.34479905  0.84480428  0.02178722  1
  H  H535  1  0.46829838  0.70905412  0.02735500  1
  C  C536  1  0.43875596  0.87447079  0.09594861  1
  H  H537  1  0.45451690  0.89178866  0.04929843  1
  H  H538  1  0.37671360  0.81245741  0.15600710  1
  H  H539  1  0.37980563  0.71162155  0.11542286  1
  C  C540  1  0.44692948  0.86285934  0.15958255  1
  C  C541  1  0.42380428  0.73241510  0.01976370  1
  C  C542  1  0.34927188  0.93710474  0.10452936  1
  C  C543  1  0.35733855  0.92747376  0.07499765  1
  H  H544  1  0.46541579  0.86405803  0.14632782  1
  C  C545  1  0.34043487  0.59847672  0.15163958  1
  C  C546  1  0.34099085  0.57466523  0.12115868  1
  H  H547  1  0.30473760  0.76147978  0.01005246  1
  H  H548  1  0.37913231  0.71270555  0.00852888  1
  H  H549  1  0.30856819  0.96516264  0.01961775  1
  H  H550  1  0.38350401  0.92937290  0.02634200  1
  H  H551  1  0.45500046  0.93188806  0.10711423  1
  C  C552  1  0.39620732  0.83839389  0.16620912  1
  H  H553  1  0.29133946  0.57591130  0.03548887  1
  H  H554  1  0.32166254  0.58868958  0.10687694  1
  H  H555  1  0.32334705  0.64449214  0.16236278  1
  C  C556  1  0.45191763  0.71526455  0.01075747  1
  H  H557  1  0.25102559  0.54397278  0.00691788  1
  H  H558  1  0.32203531  0.53620545  0.06135899  1
  C  C559  1  0.36570500  0.52752645  0.10662606  1
  C  C560  1  0.36627319  0.50724869  0.07395768  1
  H  H561  1  0.37480659  0.97380703  0.06566637  1
  C  C562  1  0.36801695  0.90292859  0.01066291  1
  C  C563  1  0.32371539  0.79518783  0.00217699  1
  H  H564  1  0.36240504  0.98219019  0.12166284  1
  C  C565  1  0.34310011  0.51464639  0.05330961  1
  C  C566  1  0.29377373  0.79947779  0.15876020  1
  C  C567  1  0.29484830  0.52406862  0.01494334  1
  C  C568  1  0.38899490  0.51681746  0.15495971  1
  C  C569  1  0.40092846  0.70523114  0.00056520  1
  C  C570  1  0.36556806  0.57294651  0.16882652  1
  C  C571  1  0.32767587  0.95493262  0.16690775  1
  O  O572  1  0.29766119  0.53812405  0.28595667  1
  O  O573  1  0.47963468  0.97495215  0.26987927  1
  H  H574  1  0.40801973  0.53968967  0.20688805  1
  C  C575  1  0.39122567  0.58883657  0.21714061  1
  C  C576  1  0.28989798  0.79759986  0.19027980  1
  H  H577  1  0.27598215  0.72881953  0.20057744  1
  C  C578  1  0.36752469  0.61993819  0.19944317  1
  C  C579  1  0.34810658  0.70921808  0.24487514  1
  C  C580  1  0.37128524  0.71144930  0.29452121  1
  C  C581  1  0.37135163  0.68332485  0.26122678  1
  C  C582  1  0.39226610  0.61448116  0.24705932  1
  O  O583  1  0.39256070  0.70630058  0.31056424  1
  H  H584  1  0.40989508  0.57995713  0.25880615  1
  Zn  Zn585  1  0.30955437  0.70627386  0.29992535  1
  O  O586  1  0.34952391  0.75261923  0.30434254  1
  O  O587  1  0.28478625  0.80315881  0.25601765  1
  C  C588  1  0.34510593  0.67460258  0.21438531  1
  H  H589  1  0.33057358  0.76209686  0.25417233  1
  C  C590  1  0.29961063  0.87819142  0.24335019  1
  C  C591  1  0.30443151  0.87329239  0.20961092  1
  Zn  Zn592  1  0.42332345  0.83900895  0.31885684  1
  H  H593  1  0.37652795  0.82462649  0.21042960  1
  C  C594  1  0.39548740  0.84806753  0.19779095  1
  C  C595  1  0.42242389  0.87357723  0.20929574  1
  O  O596  1  0.45486886  0.70083116  0.31857006  1
  C  C597  1  0.44632458  0.87412580  0.19137604  1
  Zn  Zn598  1  0.45628322  0.90763821  0.23566224  1
  O  O599  1  0.26112071  0.90226534  0.32781971  1
  Zn  Zn600  1  0.29758484  0.97544216  0.30461515  1
  C  C601  1  0.32185064  0.96119968  0.19781182  1
  O  O602  1  0.44542515  0.99189257  0.30258844  1
  C  C603  1  0.47093474  0.99620203  0.29646508  1
  H  H604  1  0.32711662  0.69271035  0.20155463  1
  Zn  Zn605  1  0.40205474  0.52205675  0.33270889  1
  H  H606  1  0.38212719  0.52110882  0.28831660  1
  O  O607  1  0.30889824  0.95732511  0.26014191  1
  C  C608  1  0.25086845  0.86559944  0.43064730  1
  O  O609  1  0.27952335  0.72826226  0.33761855  1
  H  H610  1  0.25248132  0.59198680  0.37070665  1
  H  H611  1  0.25451191  0.82668968  0.40827589  1
  C  C612  1  0.49386791  0.90533441  0.49966900  1
  H  H613  1  0.47213614  0.52028834  0.39090524  1
  H  H614  1  0.49126778  0.68942574  0.47922361  1
  C  C615  1  0.46957486  0.52334431  0.47265035  1
  C  C616  1  0.26102556  0.80641607  0.34037948  1
  O  O617  1  0.37323199  0.68227165  0.39332913  1
  O  O618  1  0.37709289  0.50393091  0.37325481  1
  C  C619  1  0.40656598  0.98281001  0.43707201  1
  C  C620  1  0.37719806  0.97987431  0.42620304  1
  O  O621  1  0.29789421  0.94982181  0.39939972  1
  H  H622  1  0.41621852  0.50288099  0.41893563  1
  C  C623  1  0.47542087  0.64138632  0.46646733  1
  C  C624  1  0.26468586  0.97270741  0.43761992  1
  H  H625  1  0.30619556  0.90105693  0.34734100  1
  O  O626  1  0.37216738  0.99469844  0.39758978  1
  H  H627  1  0.25377059  0.62034286  0.45848561  1
  Zn  Zn628  1  0.41732417  0.74606112  0.40088925  1
  C  C629  1  0.31991273  0.64814498  0.40714962  1
  O  O630  1  0.44472873  0.55588810  0.34833178  1
  C  C631  1  0.29285465  0.61630550  0.41572690  1
  H  H632  1  0.32841335  0.73942262  0.41263446  1
  H  H633  1  0.40230111  0.89636109  0.36891074  1
  C  C634  1  0.33509920  0.55608355  0.39560702  1
  H  H635  1  0.39390818  0.92926082  0.48224849  1
  C  C636  1  0.41077392  0.94918861  0.46771380  1
  C  C637  1  0.48811074  0.58357614  0.38472941  1
  O  O638  1  0.35956020  0.96620525  0.44503422  1
  C  C639  1  0.45960299  0.98566987  0.45776438  1
  C  C640  1  0.46029700  0.63368193  0.33942459  1
  C  C641  1  0.36469035  0.58179883  0.38798707  1
  H  H642  1  0.45950702  0.79560172  0.44002149  1
  C  C643  1  0.43787024  0.95262617  0.47748670  1
  O  O644  1  0.41732268  0.84511186  0.36391224  1
  N  N645  1  0.43757044  0.65122762  0.42987815  1
  C  C646  1  0.48769629  0.94504601  0.46897938  1
  C  C647  1  0.45759907  0.70233645  0.44576378  1
  C  C648  1  0.48587652  0.65028012  0.35793204  1
  O  O649  1  0.31892830  0.96001927  0.34023296  1
  H  H650  1  0.27971714  0.67410488  0.42966423  1
  C  C651  1  0.43323953  0.53647107  0.43341015  1
  H  H652  1  0.47740373  0.90562747  0.51693758  1
  H  H653  1  0.48894099  0.90144593  0.64817608  1
  C  C654  1  0.49944693  0.93096647  0.62724243  1
  H  H655  1  0.43917670  0.91960006  0.50061179  1
  H  H656  1  0.49963741  0.74724473  0.83492314  1
  C  C657  1  0.49813443  0.65234031  0.83820663  1
  C  C658  1  0.48483614  0.60962417  0.86395870  1
  C  C659  1  0.46902029  0.99444373  0.87851992  1
  H  H660  1  0.32577176  0.52628639  0.93104582  1
  C  C661  1  0.42460087  0.95556877  0.97743299  1
  H  H662  1  0.28750499  0.64965639  0.97599585  1
  C  C663  1  0.34524867  0.56991624  0.92661919  1
  C  C664  1  0.32742751  0.55699693  0.87391161  1
  C  C665  1  0.37284328  0.90522262  0.97839471  1
  H  H666  1  0.29439490  0.60880883  0.90659558  1
  C  C667  1  0.30295158  0.84328565  0.92019260  1
  C  C668  1  0.25877370  0.73792118  0.90956771  1
  C  C669  1  0.26121454  0.68434175  0.93851008  1
  H  H670  1  0.43390941  0.58669535  0.88640448  1
  C  C671  1  0.36172178  0.59842350  0.95144478  1
  C  C672  1  0.49011225  0.74712824  0.93550345  1
  C  C673  1  0.28447936  0.69922708  0.95609829  1
  C  C674  1  0.32779479  0.81569727  0.97110473  1
  H  H675  1  0.28075564  0.85671614  0.88000660  1
  C  C676  1  0.29906677  0.56154821  0.88525511  1
  C  C677  1  0.48424511  0.68677133  0.96277675  1
  C  C678  1  0.44669302  0.99408509  0.95938328  1
  C  C679  1  0.43511073  0.68510971  0.95965115  1
  C  C680  1  0.38657035  0.66079556  0.94318739  1
  H  H681  1  0.46770572  0.98389003  0.96801702  1
  H  H682  1  0.43852257  0.67957361  0.93519839  1
  H  H683  1  0.47842776  0.66875109  0.88232057  1
  H  H684  1  0.42703888  0.91022582  0.99924423  1
  H  H685  1  0.31745343  0.90837366  0.91235440  1
  C  C686  1  0.37360365  0.65855074  0.88712658  1
  C  C687  1  0.39805056  0.95683841  0.96316219  1
  C  C688  1  0.39032341  0.69476265  0.91211402  1
  C  C689  1  0.45720968  0.70448004  0.97964404  1
  H  H690  1  0.47558014  0.81379571  0.92837425  1
  H  H691  1  0.49433658  0.54637871  0.99481535  1
  C  C692  1  0.34976628  0.59253223  0.89469488  1
  C  C693  1  0.28055808  0.81412892  0.90087055  1
  C  C694  1  0.35167475  0.86736151  0.95955013  1
  H  H695  1  0.37862460  0.69115865  0.86474588  1
  H  H696  1  0.40730814  0.75648586  0.90575562  1
  H  H697  1  0.35288009  0.88460537  0.93503689  1
  C  C698  1  0.40730741  0.68046797  0.96924141  1
  C  C699  1  0.30384723  0.79050594  0.94898112  1
  H  H700  1  0.35723142  0.58350769  0.97510144  1
  C  C701  1  0.27741311  0.51745918  0.86816517  1
  H  H702  1  0.25675281  0.51817892  0.87697828  1
  H  H703  1  0.26433317  0.86595501  0.99321166  1
  C  C704  1  0.26826641  0.96042223  0.99309338  1
  C  C705  1  0.43718952  0.50393942  0.89805797  1
  H  H706  1  0.39529186  0.51083746  0.91745997  1
  H  H707  1  0.42239349  0.50231332  0.98092356  1
  C  C708  1  0.33176590  0.51729984  0.84338559  1
  H  H709  1  0.35256475  0.51604399  0.83384159  1
  H  H710  1  0.48959639  0.98359897  0.83495142  1
  H  H711  1  0.45110464  0.94989367  0.86948332  1
  C  C712  1  0.27063745  0.50430625  0.99925078  1
  O  O713  1  0.69948583  0.07101524  0.02693941  1
  H  H714  1  0.72683436  0.18825476  0.00183759  1
  C  C715  1  0.53924026  0.03734161  0.33251441  1
  H  H716  1  0.73392287  0.18776055  0.32254553  1
  H  H717  1  0.56064905  0.03626413  0.32541750  1
  C  C718  1  0.51986386  0.01688032  0.31101375  1
  H  H719  1  0.52706567  0.00550628  0.28789511  1
  H  H720  1  0.59008556  0.01159471  0.36454289  1
  C  C721  1  0.59634080  0.40477208  0.46405513  1
  H  H722  1  0.52032342  0.13679010  0.41482913  1
  H  H723  1  0.66920612  0.00491805  0.49711148  1
  C  C724  1  0.50287859  0.04324048  0.37027730  1
  C  C725  1  0.64546658  0.41779019  0.42901303  1
  H  H726  1  0.61603991  0.41620997  0.47491717  1
  H  H727  1  0.50332593  0.29638070  0.46318832  1
  H  H728  1  0.64490338  0.44815821  0.45244296  1
  C  C729  1  0.66895604  0.42685067  0.41246757  1
  H  H730  1  0.66419823  0.10661432  0.37914982  1
  C  C731  1  0.60457533  0.14111531  0.46488710  1
  C  C732  1  0.71829638  0.46311625  0.37428969  1
  C  C733  1  0.64991793  0.20171203  0.48490289  1
  C  C734  1  0.74435523  0.45355532  0.36087965  1
  C  C735  1  0.68401703  0.25275161  0.44495434  1
  C  C736  1  0.56997735  0.35948365  0.41620544  1
  H  H737  1  0.68973656  0.45062059  0.41936733  1
  C  C738  1  0.72829691  0.03313679  0.40584477  1
  C  C739  1  0.54317786  0.41410498  0.46282899  1
  C  C740  1  0.67897542  0.22889669  0.47570746  1
  H  H741  1  0.71703428  0.30942773  0.41190299  1
  H  H742  1  0.72713298  0.09070633  0.42562129  1
  H  H743  1  0.55200734  0.16618153  0.46117747  1
  H  H744  1  0.57009054  0.34321430  0.39145530  1
  C  C745  1  0.59988835  0.06628946  0.40895016  1
  C  C746  1  0.53195323  0.05286500  0.36278140  1
  H  H747  1  0.64669537  0.29640843  0.34472193  1
  H  H748  1  0.68575071  0.21619664  0.34512944  1
  H  H749  1  0.66648350  0.24900507  0.42846083  1
  C  C750  1  0.59463980  0.37353757  0.43298569  1
  C  C751  1  0.73177657  0.26458835  0.45758774  1
  C  C752  1  0.72904468  0.26372684  0.33744874  1
  H  H753  1  0.72686937  0.45601338  0.46534653  1
  H  H754  1  0.51689650  0.07730375  0.48944001  1
  C  C755  1  0.71129464  0.27756830  0.43498502  1
  C  C756  1  0.51814160  0.34729046  0.41762643  1
  C  C757  1  0.54491799  0.37154090  0.43209443  1
  C  C758  1  0.62115830  0.36967933  0.41459026  1
  C  C759  1  0.58134125  0.04757666  0.38615319  1
  C  C760  1  0.51408731  0.35001447  0.38617650  1
  H  H761  1  0.63996406  0.15870134  0.43629540  1
  C  C762  1  0.55256301  0.06605589  0.38859769  1
  C  C763  1  0.55948361  0.13366983  0.43992587  1
  C  C764  1  0.62143114  0.32687391  0.38485083  1
  C  C765  1  0.69729555  0.38193225  0.36624167  1
  O  O766  1  0.65030666  0.08164881  0.36622269  1
  C  C767  1  0.70265224  0.28132738  0.34895650  1
  C  C768  1  0.56983487  0.43558714  0.47613019  1
  C  C769  1  0.58850365  0.11348740  0.43583822  1
  H  H770  1  0.70743343  0.02571745  0.45809002  1
  C  C771  1  0.64566625  0.33268637  0.36814259  1
  H  H772  1  0.52385018  0.44566221  0.47347559  1
  H  H773  1  0.60345727  0.28808026  0.37536056  1
  H  H774  1  0.52901108  0.38494835  0.37025949  1
  C  C775  1  0.63255526  0.16312431  0.46005884  1
  C  C776  1  0.54146671  0.10712478  0.41630595  1
  C  C777  1  0.66931590  0.38734448  0.38127854  1
  H  H778  1  0.62235701  0.05013545  0.40748662  1
  H  H779  1  0.65501702  0.00250958  0.36075250  1
  C  C780  1  0.59368258  0.14173133  0.49516346  1
  C  C781  1  0.72650308  0.23458336  0.48817318  1
  C  C782  1  0.74806349  0.35613384  0.34195303  1
  H  H783  1  0.74906297  0.28501448  0.39991102  1
  C  C784  1  0.69956664  0.21841240  0.49850706  1
  H  H785  1  0.65346445  0.23862845  0.53426761  1
  H  H786  1  0.64207425  0.22174986  0.57052776  1
  C  C787  1  0.61206437  0.19248025  0.60367804  1
  H  H788  1  0.62672999  0.19869238  0.62303416  1
  C  C789  1  0.62082783  0.19891192  0.57368581  1
  C  C790  1  0.61182318  0.17851553  0.51814153  1
  H  H791  1  0.59903262  0.35884579  0.52264431  1
  C  C792  1  0.60133307  0.17986155  0.55038597  1
  C  C793  1  0.58385966  0.16499783  0.60893700  1
  C  C794  1  0.57613739  0.13742553  0.64104930  1
  C  C795  1  0.57255965  0.16119916  0.55325779  1
  C  C796  1  0.56579712  0.14952856  0.58371489  1
  C  C797  1  0.63982406  0.21800252  0.51459237  1
  H  H798  1  0.69461870  0.20620799  0.52245408  1
  H  H799  1  0.59401893  0.39754257  0.57890977  1
  C  C800  1  0.64661072  0.39253195  0.63995535  1
  H  H801  1  0.55007875  0.37384903  0.61553661  1
  C  C802  1  0.67123591  0.36878838  0.58695827  1
  H  H803  1  0.68680935  0.31796737  0.64828660  1
  H  H804  1  0.68349274  0.29328298  0.59429745  1
  H  H805  1  0.54449267  0.35378957  0.53464297  1
  H  H806  1  0.55764171  0.15668678  0.53508448  1
  H  H807  1  0.54447310  0.13742501  0.59142788  1
  C  C808  1  0.66323963  0.06325522  0.57278080  1
  C  C809  1  0.52549660  0.31113507  0.52574373  1
  C  C810  1  0.70585021  0.11361881  0.58494582  1
  N  N811  1  0.68754591  0.10154146  0.56315581  1
  H  H812  1  0.72517935  0.13892715  0.57433089  1
  C  C813  1  0.65708100  0.04273254  0.60323511  1
  H  H814  1  0.68328436  0.35566038  0.54007683  1
  C  C815  1  0.55454311  0.05667690  0.64783592  1
  C  C816  1  0.70169525  0.11039448  0.61618813  1
  C  C817  1  0.58467960  0.42864575  0.53050950  1
  C  C818  1  0.67034903  0.40595972  0.55638916  1
  C  C819  1  0.66816520  0.34803014  0.65935286  1
  H  H820  1  0.65178633  0.03930341  0.55217700  1
  C  C821  1  0.67584288  0.06681022  0.62623930  1
  H  H822  1  0.54152596  0.02510813  0.63028981  1
  N  N823  1  0.52937458  0.21550870  0.50882007  1
  C  C824  1  0.58173066  0.45181723  0.56180358  1
  C  C825  1  0.65191997  0.42059280  0.60660068  1
  H  H826  1  0.74396726  0.24048535  0.50407019  1
  H  H827  1  0.71648530  0.13977549  0.63366952  1
  H  H828  1  0.66935019  0.05817200  0.64904935  1
  H  H829  1  0.63571375  0.00677605  0.61043063  1
  H  H830  1  0.61163865  0.23129855  0.65844306  1
  C  C831  1  0.55812917  0.45370346  0.62382462  1
  C  C832  1  0.62057195  0.41039971  0.65406335  1
  C  C833  1  0.56012528  0.47273190  0.65485473  1
  C  C834  1  0.56724874  0.48352883  0.50861483  1
  C  C835  1  0.50269432  0.06525012  0.58634162  1
  C  C836  1  0.59418773  0.17924892  0.66501901  1
  H  H837  1  0.60225905  0.44157430  0.64215695  1
  H  H838  1  0.57362078  0.10515461  0.50175023  1
  C  C839  1  0.50842976  0.15400955  0.50104954  1
  C  C840  1  0.50335887  0.44980178  0.81881616  1
  C  C841  1  0.54940639  0.02850901  0.67814293  1
  H  H842  1  0.55645045  0.40384598  0.67133727  1
  H  H843  1  0.51138412  0.38542363  0.80211548  1
  C  C844  1  0.66558116  0.33950595  0.69090685  1
  H  H845  1  0.68194738  0.31426077  0.70584687  1
  H  H846  1  0.60203560  0.18473192  0.71215020  1
  C  C847  1  0.58856508  0.15195502  0.69432087  1
  C  C848  1  0.71575512  0.26466307  0.81539278  1
  O  O849  1  0.65132485  0.29782731  0.75417971  1
  O  O850  1  0.61470850  0.18875076  0.80128406  1
  O  O851  1  0.69416703  0.20335496  0.81423631  1
  Zn  Zn852  1  0.65231654  0.24738960  0.80513308  1
  O  O853  1  0.60970014  0.35907333  0.74811731  1
  C  C854  1  0.63954223  0.35204968  0.70503947  1
  C  C855  1  0.63323318  0.33464186  0.73759197  1
  O  O856  1  0.72040876  0.34434314  0.79657224  1
  C  C857  1  0.61841743  0.38894495  0.68545098  1
  H  H858  1  0.61010302  0.25366676  0.78684559  1
  C  C859  1  0.56614373  0.07415554  0.70007053  1
  O  O860  1  0.66387472  0.42408282  0.81473211  1
  C  C861  1  0.56119174  0.03968283  0.73219327  1
  O  O862  1  0.57392303  0.09634135  0.75101720  1
  Zn  Zn863  1  0.58283667  0.05762776  0.80240687  1
  O  O864  1  0.54119354  0.06095882  0.82101616  1
  Zn  Zn865  1  0.57974829  0.48825549  0.75957449  1
  H  H866  1  0.64719796  0.47413699  0.81237614  1
  O  O867  1  0.59687219  0.46142229  0.80911795  1
  H  H868  1  0.59635644  0.40784687  0.69260936  1
  C  C869  1  0.56039948  0.47834093  0.85756041  1
  C  C870  1  0.69287296  0.29634513  0.89551529  1
  C  C871  1  0.54301496  0.49428196  0.88302116  1
  H  H872  1  0.71840557  0.09125868  0.85633111  1
  C  C873  1  0.73741448  0.24985190  0.83940005  1
  H  H874  1  0.69316632  0.33410344  0.87282020  1
  H  H875  1  0.55850392  0.40362928  0.84266615  1
  H  H876  1  0.53282011  0.16839711  0.90438645  1
  C  C877  1  0.66620747  0.23204549  0.93998093  1
  C  C878  1  0.54334786  0.23611473  0.96400354  1
  Zn  Zn879  1  0.59316582  0.12929176  0.88683445  1
  H  H880  1  0.52881461  0.42742976  0.89032465  1
  C  C881  1  0.74231472  0.25570529  0.95972969  1
  H  H882  1  0.71719669  0.06053916  0.94921812  1
  O  O883  1  0.60602210  0.00332656  0.85355894  1
  C  C884  1  0.52010287  0.29251826  0.97554490  1
  C  C885  1  0.56702970  0.04431802  0.94882408  1
  C  C886  1  0.68935384  0.23030902  0.95785609  1
  H  H887  1  0.56013888  0.29101760  0.95164366  1
  C  C888  1  0.53821171  0.09342792  0.84842322  1
  H  H889  1  0.69316615  0.40787686  0.96310409  1
  H  H890  1  0.63594720  0.04035752  0.91109457  1
  C  C891  1  0.51462240  0.11878552  0.89666117  1
  H  H892  1  0.61652580  0.44850271  0.89572292  1
  C  C893  1  0.74527837  0.22307952  0.99047328  1
  H  H894  1  0.51977544  0.38823852  0.97577991  1
  O  O895  1  0.64413043  0.31594203  0.86443685  1
  C  C896  1  0.54335560  0.11287060  0.96261245  1
  H  H897  1  0.68248326  0.01600299  0.93855927  1
  O  O898  1  0.55659457  0.15667599  0.86061578  1
  C  C899  1  0.50031680  0.10639963  0.98947737  1
  C  C900  1  0.52185084  0.04885583  0.97613736  1
  C  C901  1  0.51431546  0.06857410  0.86773504  1
  C  C902  1  0.64144388  0.28086920  0.89108847  1
  C  C903  1  0.65454859  0.00164420  0.89975930  1
  O  O904  1  0.58515518  0.10792839  0.93564523  1
  C  C905  1  0.66717257  0.26785085  0.90899390  1
  H  H906  1  0.64722052  0.20099732  0.95141457  1
  C  C907  1  0.71535536  0.25561595  0.94354484  1
  C  C908  1  0.73579285  0.15422590  0.85861182  1
  H  H909  1  0.68828574  0.21270810  0.98275283  1
  H  H910  1  0.73534056  0.31458820  0.90152018  1
  O  O911  1  0.61796757  0.25757962  0.90146621  1
  C  C912  1  0.71587142  0.29580186  0.91363183  1
  C  C913  1  0.70294721  0.49619946  0.96541168  1
  Zn  Zn914  1  0.66445704  0.49284399  0.85803070  1
  H  H915  1  0.74448662  0.43221744  0.98503002  1
  C  C916  1  0.71170739  0.99737953  0.03888313  1
  H  H917  1  0.74238151  0.64951150  0.07983458  1
  O  O918  1  0.72431235  0.92105953  0.05046547  1
  H  H919  1  0.74591613  0.59760794  0.02183285  1
  H  H920  1  0.50550395  0.79710408  0.33184253  1
  H  H921  1  0.66223886  0.91761125  0.31237331  1
  H  H922  1  0.69457612  0.73569519  0.30568764  1
  C  C923  1  0.65861275  0.83162906  0.32323536  1
  C  C924  1  0.67710292  0.73197823  0.32172276  1
  H  H925  1  0.68489415  0.55077337  0.33435606  1
  H  H926  1  0.73232790  0.82629546  0.33564010  1
  H  H927  1  0.50599510  0.95734281  0.42482574  1
  C  C928  1  0.68144517  0.95653228  0.42115087  1
  C  C929  1  0.53219084  0.67089100  0.39564025  1
  C  C930  1  0.50541553  0.73659804  0.35173344  1
  C  C931  1  0.70479520  0.96020428  0.39955490  1
  C  C932  1  0.74543387  0.77131165  0.43016689  1
  H  H933  1  0.58460374  0.69429519  0.48700917  1
  H  H934  1  0.69102183  0.81772841  0.37031394  1
  C  C935  1  0.73229602  0.53883549  0.45458210  1
  C  C936  1  0.64919108  0.64379840  0.35631062  1
  C  C937  1  0.63602294  0.88389614  0.43283001  1
  H  H938  1  0.66062394  0.68686984  0.43263351  1
  C  C939  1  0.63140506  0.73851585  0.35700385  1
  C  C940  1  0.65996447  0.64270591  0.45477165  1
  N  N941  1  0.63648829  0.83433761  0.34007551  1
  C  C942  1  0.60816987  0.62911869  0.41546719  1
  H  H943  1  0.53926231  0.72433732  0.45649608  1
  H  H944  1  0.61567489  0.83791418  0.42689971  1
  C  C945  1  0.53682249  0.91979090  0.45681059  1
  C  C946  1  0.54129065  0.88848156  0.48752609  1
  H  H947  1  0.58614964  0.89971865  0.45286926  1
  C  C948  1  0.72073293  0.74284640  0.44375322  1
  C  C949  1  0.55922993  0.67746910  0.41358059  1
  C  C950  1  0.73056764  0.88850944  0.35433740  1
  C  C951  1  0.58412898  0.64136096  0.39889710  1
  H  H952  1  0.64506196  0.56961825  0.37135055  1
  C  C953  1  0.63347665  0.62527167  0.46791089  1
  H  H954  1  0.71561869  0.54252246  0.38915859  1
  H  H955  1  0.55318843  0.94491194  0.43998562  1
  C  C956  1  0.67272187  0.63194897  0.33734402  1
  C  C957  1  0.60882816  0.64398958  0.44758329  1
  C  C958  1  0.55848393  0.69359418  0.44576329  1
  C  C959  1  0.51110380  0.59250116  0.40264786  1
  H  H960  1  0.51090287  0.53408103  0.42126894  1
  H  H961  1  0.62634613  0.59994351  0.40271669  1
  C  C962  1  0.68429426  0.61079598  0.47134748  1
  C  C963  1  0.52762202  0.75061703  0.37105697  1
  C  C964  1  0.70763901  0.88702830  0.37326597  1
  C  C965  1  0.61944655  0.90376660  0.48710304  1
  H  H966  1  0.54200970  0.81950256  0.36828829  1
  H  H967  1  0.65391135  0.87201743  0.38857158  1
  C  C968  1  0.64175167  0.91988229  0.46309923  1
  C  C969  1  0.59156251  0.89495813  0.47661352  1
  C  C970  1  0.58372946  0.68206018  0.46144063  1
  C  C971  1  0.71297247  0.63041287  0.45727483  1
  H  H972  1  0.61210895  0.75282419  0.37086950  1
  H  H973  1  0.74885216  0.85585782  0.41885278  1
  H  H974  1  0.70587595  0.81355813  0.44478177  1
  C  C975  1  0.50973816  0.94203988  0.44834569  1
  H  H976  1  0.58445572  0.61550806  0.37443733  1
  C  C977  1  0.65574828  0.90765340  0.41118178  1
  C  C978  1  0.66631439  0.97272184  0.47382833  1
  C  C979  1  0.68078765  0.55121734  0.49896343  1
  C  C980  1  0.68671891  0.99049250  0.45152896  1
  C  C981  1  0.57125427  0.88037686  0.49857635  1
  C  C982  1  0.63017607  0.58672912  0.49820690  1
  C  C983  1  0.61149519  0.86503692  0.57502254  1
  C  C984  1  0.63494562  0.79578139  0.58144072  1
  C  C985  1  0.62375101  0.81367613  0.63337486  1
  C  C986  1  0.64257510  0.76905917  0.61111523  1
  H  H987  1  0.65102847  0.76988055  0.56420139  1
  H  H988  1  0.66054932  0.71696235  0.61876243  1
  C  C989  1  0.56668907  0.66869209  0.61620630  1
  H  H990  1  0.57057246  0.73548327  0.59829167  1
  H  H991  1  0.53203881  0.66580163  0.55780232  1
  C  C992  1  0.60517351  0.87569217  0.54063485  1
  C  C993  1  0.60222981  0.89833668  0.62786154  1
  H  H994  1  0.64800901  0.89564405  0.52390149  1
  C  C995  1  0.57828271  0.86020598  0.53013641  1
  H  H996  1  0.56372023  0.82224253  0.54592002  1
  C  C997  1  0.59309603  0.90576839  0.59785259  1
  C  C998  1  0.62621684  0.89473217  0.51806139  1
  C  C999  1  0.56787200  0.68504595  0.64624367  1
  H  H1000  1  0.59179859  0.95462476  0.64456442  1
  H  H1001  1  0.52477448  0.84429552  0.53369792  1
  C  C1002  1  0.65437677  0.54610302  0.51285298  1
  H  H1003  1  0.61016102  0.58017488  0.50946290  1
  H  H1004  1  0.64603057  0.60745736  0.65020305  1
  H  H1005  1  0.62341177  0.62781548  0.55807013  1
  C  C1006  1  0.54757907  0.60413416  0.54909114  1
  C  C1007  1  0.52024743  0.87073835  0.50943981  1
  C  C1008  1  0.63574373  0.55392676  0.56676173  1
  C  C1009  1  0.51688979  0.85260122  0.61231439  1
  H  H1010  1  0.52381444  0.76472683  0.61889821  1
  N  N1011  1  0.52867762  0.87906800  0.58626790  1
  H  H1012  1  0.53642111  0.62033494  0.50254177  1
  C  C1013  1  0.54923194  0.57214931  0.51871632  1
  C  C1014  1  0.56136943  0.55466360  0.60433223  1
  H  H1015  1  0.69865275  0.52490527  0.51032538  1
  H  H1016  1  0.61892464  0.55918218  0.61073785  1
  C  C1017  1  0.65393326  0.50181387  0.54597365  1
  C  C1018  1  0.63418920  0.51423492  0.59682603  1
  C  C1019  1  0.56400363  0.54308409  0.57080839  1
  H  H1020  1  0.57284441  0.76880474  0.65572847  1
  H  H1021  1  0.57518468  0.95373966  0.59231645  1
  C  C1022  1  0.63108462  0.78380767  0.66579596  1
  C  C1023  1  0.56472026  0.58561462  0.66574315  1
  C  C1024  1  0.52126408  0.98179391  0.57532696  1
  H  H1025  1  0.53367318  0.98069473  0.55470477  1
  C  C1026  1  0.64459037  0.67172255  0.66978285  1
  C  C1027  1  0.50994647  0.56778197  0.81783996  1
  C  C1028  1  0.63706472  0.82123357  0.72119558  1
  C  C1029  1  0.62846850  0.85471584  0.69146892  1
  C  C1030  1  0.65349767  0.63729745  0.69896286  1
  O  O1031  1  0.66072088  0.72754366  0.77502086  1
  C  C1032  1  0.64938192  0.71277003  0.72422266  1
  Zn  Zn1033  1  0.55668958  0.79272467  0.75414274  1
  C  C1034  1  0.66353157  0.66699433  0.75185167  1
  O  O1035  1  0.59356454  0.68929427  0.76222117  1
  O  O1036  1  0.56595130  0.70610727  0.70880100  1
  O  O1037  1  0.53266370  0.70730038  0.78740975  1
  Zn  Zn1038  1  0.62122437  0.77222045  0.79668245  1
  H  H1039  1  0.59826099  0.65263806  0.74364960  1
  O  O1040  1  0.58483957  0.87330920  0.79113014  1
  H  H1041  1  0.56853439  0.83667237  0.79994769  1
  H  H1042  1  0.63706947  0.88059337  0.74140318  1
  C  C1043  1  0.56227467  0.60409431  0.69865959  1
  O  O1044  1  0.67897401  0.57608656  0.75052650  1
  C  C1045  1  0.52846720  0.60088658  0.79272268  1
  H  H1046  1  0.66443474  0.55463929  0.70133693  1
  O  O1047  1  0.63393292  0.91728650  0.82382838  1
  O  O1048  1  0.62021843  0.61341321  0.82328703  1
  H  H1049  1  0.67538814  0.87170910  0.83250651  1
  O  O1050  1  0.72427311  0.60906653  0.81802375  1
  O  O1051  1  0.54412572  0.96193709  0.73948876  1
  H  H1052  1  0.62125201  0.94487730  0.68655777  1
  C  C1053  1  0.60164408  0.54199482  0.82739439  1
  O  O1054  1  0.56241994  0.51571225  0.71538756  1
  O  O1055  1  0.53842427  0.52400603  0.77609927  1
  Zn  Zn1056  1  0.69706119  0.50370085  0.79002542  1
  H  H1057  1  0.53334821  0.96581727  0.68559589  1
  H  H1058  1  0.74737910  0.77684376  0.88808089  1
  C  C1059  1  0.67964647  0.98849241  0.91441239  1
  H  H1060  1  0.60267465  0.72198118  0.86668444  1
  H  H1061  1  0.64789269  0.84019361  0.92752543  1
  O  O1062  1  0.56565705  0.94118532  0.94792534  1
  C  C1063  1  0.69012486  0.59928316  0.95618284  1
  C  C1064  1  0.70633064  0.69901524  0.96196856  1
  C  C1065  1  0.61672380  0.70355833  0.94118574  1
  C  C1066  1  0.52905851  0.61703526  0.92860691  1
  C  C1067  1  0.62951181  0.96013804  0.84935537  1
  C  C1068  1  0.58129289  0.55889305  0.85309529  1
  C  C1069  1  0.73274173  0.99127039  0.94411519  1
  C  C1070  1  0.74876819  0.59750134  0.86556950  1
  N  N1071  1  0.74681746  0.59705247  0.97696873  1
  H  H1072  1  0.74919114  0.76373803  0.97387353  1
  C  C1073  1  0.65279722  0.68065187  0.90352605  1
  H  H1074  1  0.51936874  0.75964035  0.89793648  1
  H  H1075  1  0.58973698  0.55149258  0.93800295  1
  C  C1076  1  0.73063867  0.50207195  0.97624723  1
  C  C1077  1  0.56946630  0.67644579  0.89597400  1
  C  C1078  1  0.70360939  0.93460229  0.90046280  1
  H  H1079  1  0.66934560  0.70945607  0.88882213  1
  C  C1080  1  0.63948685  0.75093757  0.92569803  1
  C  C1081  1  0.50063689  0.59325404  0.97366864  1
  H  H1082  1  0.53868515  0.50045087  0.96796600  1
  N  N1083  1  0.64474923  0.57709854  0.89445531  1
  C  C1084  1  0.51399166  0.71589599  0.91902371  1
  H  H1085  1  0.72311652  0.55323224  0.90604966  1
  C  C1086  1  0.62279501  0.53259404  0.90761442  1
  H  H1087  1  0.52369376  0.95455111  0.97681565  1
  H  H1088  1  0.60616344  0.75570681  0.95839788  1
  C  C1089  1  0.52344134  0.56142320  0.95700475  1
  C  C1090  1  0.70200257  0.90050015  0.86985537  1
  C  C1091  1  0.74458026  0.56777978  0.89648527  1
  H  H1092  1  0.72027482  0.86742774  0.85853290  1
  C  C1093  1  0.67678070  0.90260786  0.85475139  1
  C  C1094  1  0.60856910  0.59037877  0.93092174  1
  C  C1095  1  0.72356137  0.60482022  0.84558258  1
  H  H1096  1  0.57162713  0.74941203  0.91145521  1
  H  H1097  1  0.69592058  0.77696419  0.95619113  1
  H  H1098  1  0.66918309  0.60705781  0.94572810  1
  O  O1099  1  0.70054170  0.59998014  0.85871721  1
  C  C1100  1  0.73045322  0.92139208  0.91638472  1
  C  C1101  1  0.58663100  0.65828666  0.87101918  1
  C  C1102  1  0.54823345  0.59202112  0.90171350  1
  C  C1103  1  0.73344545  0.69620401  0.97156538  1
  C  C1104  1  0.65371896  0.95082581  0.86985734  1
  C  C1105  1  0.82353767  0.26780541  0.03427921  1
  C  C1106  1  0.85422573  0.25147672  0.08198305  1
  H  H1107  1  0.80676725  0.23880496  0.04870694  1
  C  C1108  1  0.84937873  0.28597290  0.04845656  1
  C  C1109  1  0.87355114  0.31725648  0.03236307  1
  H  H1110  1  0.89434670  0.30988498  0.04196340  1
  H  H1111  1  0.91882712  0.42883931  0.02671407  1
  C  C1112  1  0.84401770  0.14599044  0.09548789  1
  C  C1113  1  0.85060975  0.10865606  0.12483447  1
  C  C1114  1  0.87339031  0.32150742  0.09851094  1
  C  C1115  1  0.88058443  0.28528903  0.12767361  1
  H  H1116  1  0.89648261  0.32811022  0.14137867  1
  H  H1117  1  0.88168475  0.40055626  0.08887339  1
  C  C1118  1  0.86769925  0.18582035  0.14150465  1
  H  H1119  1  0.77439147  0.18952405  0.02716241  1
  H  H1120  1  0.82930064  0.10066353  0.08146646  1
  C  C1121  1  0.89438137  0.07484633  0.04566276  1
  H  H1122  1  0.90618572  0.08597753  0.13638077  1
  H  H1123  1  0.87826952  0.13973284  0.03948399  1
  H  H1124  1  0.88989704  0.11355276  0.09227223  1
  H  H1125  1  0.84104623  0.03391256  0.13646909  1
  C  C1126  1  0.90047212  0.05733363  0.07586731  1
  C  C1127  1  0.92123983  0.40919750  0.00258728  1
  H  H1128  1  0.82750346  0.48740215  0.04194290  1
  C  C1129  1  0.97331534  0.12501031  0.02469615  1
  H  H1130  1  0.95498904  0.13080401  0.03763404  1
  C  C1131  1  0.82213320  0.29040081  0.00276833  1
  C  C1132  1  0.87083812  0.34588030  0.00113474  1
  C  C1133  1  0.90913424  0.00729165  0.02406088  1
  C  C1134  1  0.77120097  0.22669342  0.00510556  1
  H  H1135  1  0.84911111  0.47535862  0.15552430  1
  C  C1136  1  0.99550957  0.05438721  0.03447389  1
  C  C1137  1  0.91647647  0.00431190  0.14043634  1
  H  H1138  1  0.93834348  0.48281320  0.13309312  1
  C  C1139  1  0.86287020  0.49295375  0.17375962  1
  H  H1140  1  0.83415263  0.42614454  0.20809354  1
  O  O1141  1  0.84028264  0.45242338  0.26421655  1
  H  H1142  1  0.88708321  0.33955003  0.18069730  1
  C  C1143  1  0.87307562  0.15726599  0.17390172  1
  C  C1144  1  0.87574984  0.03064902  0.21750872  1
  C  C1145  1  0.89369824  0.10585276  0.26713514  1
  O  O1146  1  0.90332923  0.19499121  0.28241963  1
  C  C1147  1  0.88564028  0.12439329  0.23536087  1
  H  H1148  1  0.89622981  0.30837210  0.23435792  1
  C  C1149  1  0.88797550  0.23401443  0.22076712  1
  C  C1150  1  0.88327150  0.25189292  0.19038220  1
  C  C1151  1  0.87031071  0.04441260  0.18718965  1
  O  O1152  1  0.82443585  0.02540443  0.28712674  1
  O  O1153  1  0.78317948  0.27006250  0.31082788  1
  O  O1154  1  0.89419928  0.00724564  0.27872933  1
  Zn  Zn1155  1  0.81820022  0.14565359  0.31984610  1
  O  O1156  1  0.95881054  0.05917064  0.31589294  1
  Zn  Zn1157  1  0.83011865  0.42458413  0.30830532  1
  O  O1158  1  0.84832959  0.27264033  0.32379254  1
  C  C1159  1  0.77619534  0.35101520  0.32768270  1
  C  C1160  1  0.86575836  0.47628252  0.25750923  1
  Zn  Zn1161  1  0.89430326  0.24416122  0.32501287  1
  C  C1162  1  0.85389765  0.47176294  0.20340997  1
  C  C1163  1  0.87420089  0.49592601  0.22560547  1
  C  C1164  1  0.96156566  0.14825604  0.33316929  1
  H  H1165  1  0.84374604  0.01850457  0.28484480  1
  H  H1166  1  0.91728699  0.02230512  0.18959265  1
  C  C1167  1  0.99828146  0.28829205  0.48829309  1
  H  H1168  1  0.87011848  0.48278980  0.47606310  1
  H  H1169  1  0.99332535  0.02845724  0.44788801  1
  O  O1170  1  0.79461254  0.42910293  0.33545065  1
  O  O1171  1  0.94162013  0.21670081  0.33744836  1
  H  H1172  1  0.83272688  0.49299078  0.36640038  1
  H  H1173  1  0.93862008  0.02263424  0.45704484  1
  C  C1174  1  0.83384819  0.03450969  0.43431529  1
  C  C1175  1  0.80922404  0.30689754  0.46114124  1
  C  C1176  1  0.91543171  0.04031833  0.41589684  1
  C  C1177  1  0.75131622  0.04261794  0.38638645  1
  Zn  Zn1178  1  0.89487283  0.41379426  0.39948625  1
  C  C1179  1  0.76117817  0.27854961  0.44673665  1
  C  C1180  1  0.89107525  0.12532935  0.48563114  1
  C  C1181  1  0.88939493  0.02938374  0.36408948  1
  H  H1182  1  0.80009923  0.28475688  0.38283726  1
  C  C1183  1  0.98577210  0.15649178  0.35279831  1
  H  H1184  1  0.87213940  0.16256098  0.47613665  1
  H  H1185  1  0.82577795  0.32741687  0.47747979  1
  C  C1186  1  0.76766110  0.28585870  0.41526558  1
  H  H1187  1  0.77020213  0.09875012  0.39154278  1
  H  H1188  1  0.80075827  0.49388712  0.41342378  1
  C  C1189  1  0.94726259  0.37463893  0.42949901  1
  C  C1190  1  0.96719365  0.29957240  0.44728481  1
  H  H1191  1  0.76618411  0.47739804  0.42841063  1
  C  C1192  1  0.91610863  0.18786582  0.48830422  1
  O  O1193  1  0.87926060  0.12816962  0.36364346  1
  C  C1194  1  0.98994322  0.11872993  0.45367725  1
  H  H1195  1  0.97692245  0.44776256  0.47806333  1
  O  O1196  1  0.79694926  0.03361793  0.34687852  1
  C  C1197  1  0.79537691  0.28813208  0.40693679  1
  H  H1198  1  0.85404785  0.28440085  0.34451099  1
  H  H1199  1  0.96519577  0.29371733  0.37644157  1
  H  H1200  1  0.79125090  0.08104998  0.44932806  1
  C  C1201  1  0.98054013  0.35805935  0.47179462  1
  C  C1202  1  0.97080881  0.18459587  0.43753266  1
  C  C1203  1  0.81578625  0.31097785  0.42978573  1
  H  H1204  1  0.90917746  0.13154131  0.42047583  1
  C  C1205  1  0.80751224  0.01392885  0.44718504  1
  C  C1206  1  0.98463872  0.25131528  0.37380392  1
  H  H1207  1  0.92084775  0.36836867  0.35296889  1
  C  C1208  1  0.89109959  0.01085565  0.49634145  1
  C  C1209  1  0.84568398  0.32527934  0.42087317  1
  H  H1210  1  0.83917869  0.12367844  0.42574982  1
  C  C1211  1  0.78187850  0.28265621  0.46879459  1
  H  H1212  1  0.95853133  0.15136384  0.41863189  1
  O  O1213  1  0.85229886  0.34902766  0.39439800  1
  H  H1214  1  0.91851367  0.28337619  0.48045865  1
  O  O1215  1  0.86346567  0.33540431  0.44050027  1
  O  O1216  1  0.90162440  0.37754146  0.35441579  1
  O  O1217  1  0.93368673  0.32495418  0.40933788  1
  O  O1218  1  0.94070142  0.47339174  0.43712727  1
  H  H1219  1  0.77682934  0.28661551  0.49369837  1
  H  H1220  1  0.95958005  0.15896798  0.50254818  1
  H  H1221  1  0.89829772  0.36969986  0.51443621  1
  C  C1222  1  0.93824497  0.12508563  0.50037921  1
  N  N1223  1  0.93869093  0.01757177  0.51060778  1
  H  H1224  1  0.94493206  0.44019395  0.53254718  1
  C  C1225  1  0.93199688  0.49520411  0.51701395  1
  C  C1226  1  0.90648331  0.45510569  0.50624812  1
  H  H1227  1  0.75772884  0.41004254  0.82745760  1
  C  C1228  1  0.75717896  0.33611334  0.84285077  1
  C  C1229  1  0.78909881  0.33650180  0.96098067  1
  H  H1230  1  0.76260929  0.35484550  0.92245382  1
  H  H1231  1  0.75214775  0.07182930  0.89703321  1
  C  C1232  1  0.75505385  0.14065342  0.88108261  1
  C  C1233  1  0.99928997  0.47412155  0.95943065  1
  C  C1234  1  0.94598333  0.44600703  0.98869233  1
  C  C1235  1  0.79364342  0.28188460  0.98946510  1
  H  H1236  1  0.96250902  0.26752267  0.99118470  1
  H  H1237  1  0.79485207  0.38126385  0.86501349  1
  C  C1238  1  0.77717037  0.32158097  0.86510970  1
  C  C1239  1  0.93120818  0.03983076  0.97457718  1
  C  C1240  1  0.82610426  0.08839026  0.94363956  1
  C  C1241  1  0.90613167  0.03262273  0.99032327  1
  C  C1242  1  0.95480817  0.09819508  0.89348945  1
  H  H1243  1  0.93446774  0.32891627  0.91804577  1
  C  C1244  1  0.95409666  0.05288831  0.92421997  1
  H  H1245  1  0.75809938  0.01596191  0.98402937  1
  H  H1246  1  0.93738016  0.14680742  0.88506773  1
  H  H1247  1  0.97335132  0.25757736  0.91278721  1
  C  C1248  1  0.84512289  0.33286976  0.98677593  1
  C  C1249  1  0.77823965  0.21873443  0.88267411  1
  H  H1250  1  0.94999362  0.01468021  0.98606551  1
  C  C1251  1  0.80400779  0.18692232  0.90082699  1
  C  C1252  1  0.83006813  0.23489190  0.89263634  1
  C  C1253  1  0.90329654  0.08295630  0.92823674  1
  H  H1254  1  0.78262608  0.08001374  0.93434210  1
  C  C1255  1  0.80202658  0.11504168  0.92726951  1
  C  C1256  1  0.87920162  0.08937955  0.94596081  1
  H  H1257  1  0.97787631  0.44055748  0.87014335  1
  C  C1258  1  0.92882643  0.06510385  0.94382481  1
  H  H1259  1  0.82931913  0.30638978  0.87528866  1
  C  C1260  1  0.98782066  0.31785197  0.92209032  1
  C  C1261  1  0.97939652  0.39934428  0.94540998  1
  H  H1262  1  0.98036968  0.12708837  0.85361364  1
  H  H1263  1  0.88623835  0.31112704  0.94053549  1
  H  H1264  1  0.86302915  0.07622918  0.99261961  1
  C  C1265  1  0.76432907  0.31963299  0.94542259  1
  H  H1266  1  0.82548618  0.04568074  0.96589703  1
  C  C1267  1  0.90351349  0.33619164  0.95444509  1
  C  C1268  1  0.85456302  0.20644395  0.90707703  1
  C  C1269  1  0.89907979  0.36191865  0.98599284  1
  H  H1270  1  0.84717602  0.33839157  0.96144201  1
  C  C1271  1  0.85195082  0.12998634  0.93272096  1
  C  C1272  1  0.88071283  0.06721745  0.97733470  1
  H  H1273  1  0.87513288  0.23384096  0.89767043  1
  C  C1274  1  0.97859988  0.08542748  0.87594460  1
  H  H1275  1  0.80776991  0.38764351  0.95276971  1
  H  H1276  1  0.90345742  0.08946083  0.90307690  1
  C  C1277  1  0.95119094  0.40283853  0.95890409  1
  C  C1278  1  0.92933364  0.35622704  0.94060018  1
  H  H1279  1  0.96278018  0.49812860  0.99981168  1
  C  C1280  1  0.97716022  0.19710503  0.99904378  1
  C  C1281  1  0.86688489  0.83971005  0.08985202  1
  C  C1282  1  0.86613755  0.84355171  0.05856227  1
  C  C1283  1  0.84287240  0.83349404  0.10925373  1
  C  C1284  1  0.84044144  0.84842952  0.04278771  1
  H  H1285  1  0.88812053  0.82814526  0.09802594  1
  H  H1286  1  0.88854381  0.79277068  0.14349264  1
  H  H1287  1  0.88433772  0.85559196  0.04739454  1
  C  C1288  1  0.84348901  0.81761029  0.14203310  1
  C  C1289  1  0.81565127  0.85584972  0.05994002  1
  C  C1290  1  0.81781589  0.84390960  0.09183033  1
  H  H1291  1  0.94467492  0.67441799  0.04251514  1
  C  C1292  1  0.92811664  0.65212143  0.02584596  1
  C  C1293  1  0.93475589  0.81685286  0.12247056  1
  H  H1294  1  0.93932264  0.75730981  0.10353105  1
  H  H1295  1  0.97503789  0.77556933  0.02649303  1
  C  C1296  1  0.94117744  0.78006891  0.15137998  1
  C  C1297  1  0.83828428  0.85885123  0.00852558  1
  H  H1298  1  0.79836264  0.85082033  0.15082204  1
  C  C1299  1  0.90258080  0.61106979  0.03978860  1
  C  C1300  1  0.89493939  0.53909504  0.13459290  1
  C  C1301  1  0.87974155  0.59194980  0.02035713  1
  C  C1302  1  0.90176359  0.58757490  0.07342877  1
  C  C1303  1  0.93496008  0.89512330  0.06169639  1
  C  C1304  1  0.86881480  0.78656546  0.15602154  1
  C  C1305  1  0.92919949  0.92049592  0.03186991  1
  H  H1306  1  0.95120139  0.83420816  0.06766330  1
  C  C1307  1  0.87425345  0.60143106  0.08663887  1
  C  C1308  1  0.76140705  0.62550197  0.06758021  1
  C  C1309  1  0.76289951  0.58607736  0.03727392  1
  H  H1310  1  0.85206173  0.59080868  0.13005259  1
  C  C1311  1  0.87170794  0.57975393  0.11764504  1
  H  H1312  1  0.85672988  0.63942229  0.07406603  1
  H  H1313  1  0.79926096  0.83692302  0.10563848  1
  H  H1314  1  0.79522458  0.86862674  0.04968450  1
  C  C1315  1  0.92583451  0.55697955  0.09092668  1
  C  C1316  1  0.92130322  0.52315351  0.12061175  1
  H  H1317  1  0.85977937  0.56478824  0.03006341  1
  C  C1318  1  0.81872878  0.83149804  0.15919158  1
  H  H1319  1  0.79481020  0.88278099  0.01432321  1
  C  C1320  1  0.92376713  0.93060858  0.11576636  1
  C  C1321  1  0.91922825  0.96232031  0.08303335  1
  N  N1322  1  0.77984018  0.61729648  0.08867617  1
  H  H1323  1  0.94989213  0.69205285  0.15220736  1
  C  C1324  1  0.80400682  0.57631589  0.07860958  1
  H  H1325  1  0.94634829  0.55365128  0.07984921  1
  C  C1326  1  0.78792456  0.54118580  0.02664030  1
  H  H1327  1  0.99622542  0.98810161  0.05302654  1
  H  H1328  1  0.93938617  0.86849929  0.01454144  1
  H  H1329  1  0.79298162  0.50674507  0.00423924  1
  H  H1330  1  0.81703600  0.56657663  0.09862959  1
  C  C1331  1  0.80863698  0.53683967  0.04863555  1
  C  C1332  1  0.97908712  0.76169084  0.00267567  1
  C  C1333  1  0.89070345  0.52622452  0.16767209  1
  C  C1334  1  0.93264185  0.85278074  0.17431448  1
  C  C1335  1  0.92101976  0.96046269  0.16944150  1
  O  O1336  1  0.95773460  0.74809410  0.21067717  1
  C  C1337  1  0.93775105  0.81881844  0.20827550  1
  O  O1338  1  0.87146686  0.76041438  0.24957750  1
  C  C1339  1  0.84885293  0.77214173  0.23670827  1
  C  C1340  1  0.84580885  0.79464669  0.20433311  1
  C  C1341  1  0.86930900  0.76695286  0.18616978  1
  H  H1342  1  0.88781460  0.73324757  0.19732449  1
  O  O1343  1  0.93621877  0.60978063  0.29979318  1
  Zn  Zn1344  1  0.88682661  0.68045188  0.29229379  1
  O  O1345  1  0.82632395  0.77795890  0.25156417  1
  C  C1346  1  0.82028074  0.82545341  0.19011268  1
  H  H1347  1  0.80247007  0.84417370  0.20596748  1
  H  H1348  1  0.93271576  0.56391799  0.18718798  1
  C  C1349  1  0.91101138  0.53752790  0.19056406  1
  H  H1350  1  0.91492357  0.53319939  0.23965892  1
  C  C1351  1  0.90224508  0.51521922  0.22004165  1
  Zn  Zn1352  1  0.81800680  0.85894050  0.29386919  1
  C  C1353  1  0.93966447  0.69026384  0.31605258  1
  O  O1354  1  0.91983377  0.77311169  0.31559041  1
  O  O1355  1  0.84710031  0.77490635  0.31970805  1
  H  H1356  1  0.98506200  0.54736918  0.32810355  1
  O  O1357  1  0.77917088  0.89182283  0.31986497  1
  Zn  Zn1358  1  0.92517924  0.95372226  0.31067205  1
  H  H1359  1  0.87387673  0.94348790  0.22729836  1
  O  O1360  1  0.85723915  0.59256626  0.32794356  1
  H  H1361  1  0.86379718  0.96662344  0.17408681  1
  O  O1362  1  0.92652560  0.85968465  0.22989585  1
  O  O1363  1  0.88258752  0.50204186  0.27743186  1
  H  H1364  1  0.92402174  0.73991874  0.47368218  1
  H  H1365  1  0.96855170  0.68518231  0.40267339  1
  C  C1366  1  0.75542085  0.55772994  0.43538070  1
  H  H1367  1  0.78928288  0.87021069  0.40607595  1
  C  C1368  1  0.78896418  0.67366565  0.40754769  1
  H  H1369  1  0.78432682  0.87327613  0.46893068  1
  C  C1370  1  0.99948016  0.64742510  0.43786891  1
  H  H1371  1  0.96526365  0.90861612  0.48468261  1
  C  C1372  1  0.91978899  0.65742747  0.48533199  1
  C  C1373  1  0.96344278  0.71155730  0.33709867  1
  H  H1374  1  0.76119746  0.51852191  0.36408894  1
  C  C1375  1  0.98561428  0.63021181  0.34053343  1
  C  C1376  1  0.92858830  0.79856290  0.40653876  1
  O  O1377  1  0.88377545  0.95730990  0.34301020  1
  C  C1378  1  0.84458521  0.68365457  0.33684148  1
  H  H1379  1  0.90414208  0.81805828  0.36681998  1
  O  O1380  1  0.89488633  0.59512139  0.40997502  1
  C  C1381  1  0.77740326  0.96325170  0.34091084  1
  H  H1382  1  0.82185637  0.86836326  0.36102369  1
  C  C1383  1  0.90571448  0.98162720  0.39000846  1
  C  C1384  1  0.75262112  0.96495501  0.36110576  1
  C  C1385  1  0.98855343  0.85087745  0.36927390  1
  H  H1386  1  0.91009701  0.58743868  0.42403887  1
  H  H1387  1  0.93677673  0.71252059  0.39892379  1
  C  C1388  1  0.80354383  0.56904118  0.39981068  1
  C  C1389  1  0.82242799  0.56730132  0.37651709  1
  H  H1390  1  0.98963521  0.93257942  0.38314925  1
  C  C1391  1  0.93128264  0.98082026  0.43580656  1
  C  C1392  1  0.99913623  0.77452194  0.48338176  1
  C  C1393  1  0.76253913  0.66854005  0.42539496  1
  C  C1394  1  0.88971609  0.52002186  0.48554826  1
  H  H1395  1  0.87477926  0.94878463  0.42581540  1
  C  C1396  1  0.91284743  0.86201200  0.38678957  1
  C  C1397  1  0.97636383  0.83846139  0.47194531  1
  C  C1398  1  0.85333550  0.94200641  0.43335699  1
  Zn  Zn1399  1  0.87437506  0.70388481  0.43652606  1
  N  N1400  1  0.89731263  0.61891270  0.47187402  1
  C  C1401  1  0.80364162  0.89735352  0.45767625  1
  C  C1402  1  0.96452038  0.79796287  0.44394656  1
  C  C1403  1  0.81481041  0.78774183  0.37203331  1
  C  C1404  1  0.82398724  0.80825782  0.45639062  1
  C  C1405  1  0.97744210  0.70538487  0.42459775  1
  C  C1406  1  0.96474858  0.81523368  0.35378908  1
  C  C1407  1  0.82588465  0.67781854  0.36283964  1
  N  N1408  1  0.84768728  0.83390473  0.44271361  1
  H  H1409  1  0.94978737  0.88286802  0.35089630  1
  H  H1410  1  0.82031866  0.71553893  0.46179236  1
  C  C1411  1  0.94142022  0.86298579  0.43001386  1
  C  C1412  1  0.79631814  0.78625931  0.39543886  1
  H  H1413  1  0.87255873  0.95641075  0.49217595  1
  H  H1414  1  0.91621190  0.87582483  0.52028626  1
  C  C1415  1  0.93796678  0.61042843  0.50792949  1
  H  H1416  1  0.95460371  0.66285438  0.51572002  1
  C  C1417  1  0.91511954  0.96228809  0.50900638  1
  H  H1418  1  0.77671394  0.65312737  0.83202605  1
  N  N1419  1  0.80363021  0.84789671  0.82297027  1
  H  H1420  1  0.84044615  0.80778379  0.80785870  1
  C  C1421  1  0.83098140  0.84530057  0.82702207  1
  C  C1422  1  0.86650665  0.53677155  0.93515147  1
  H  H1423  1  0.99333310  0.52738199  0.97889494  1
  H  H1424  1  0.81909244  0.63117773  0.86330925  1
  C  C1425  1  0.82651273  0.85603108  0.94494464  1
  H  H1426  1  0.76904283  0.90073736  0.83804285  1
  H  H1427  1  0.87977393  0.82301469  0.99554206  1
  C  C1428  1  0.99880131  0.60826072  0.86404695  1
  H  H1429  1  0.88739509  0.51844185  0.92826821  1
  C  C1430  1  0.97590261  0.53612533  0.87137636  1
  C  C1431  1  0.93059191  0.67507841  0.99484360  1
  C  C1432  1  0.75559119  0.96744395  0.96253183  1
  C  C1433  1  0.78968114  0.89462253  0.84498722  1
  H  H1434  1  0.82668172  0.62702150  0.99822163  1
  C  C1435  1  0.81819460  0.55356695  0.92428534  1
  C  C1436  1  0.81070353  0.87080079  0.99810353  1
  C  C1437  1  0.95084159  0.58563907  0.88097849  1
  H  H1438  1  0.93302119  0.52652928  0.88528118  1
  C  C1439  1  0.75065449  0.83961091  0.90611363  1
  H  H1440  1  0.95135639  0.61753883  0.93683185  1
  H  H1441  1  0.78985326  0.60086902  0.96040049  1
  C  C1442  1  0.97434028  0.78279081  0.88071207  1
  H  H1443  1  0.86548156  0.88869781  0.85472696  1
  C  C1444  1  0.85926422  0.84654244  0.98599418  1
  H  H1445  1  0.78611722  0.74362507  0.92003333  1
  H  H1446  1  0.76429525  0.51639340  0.93717615  1
  C  C1447  1  0.96426156  0.67298834  0.95253944  1
  C  C1448  1  0.79942429  0.93027882  0.87351564  1
  C  C1449  1  0.99802450  0.73525002  0.86683430  1
  C  C1450  1  0.77571430  0.61591737  0.85474192  1
  C  C1451  1  0.77638372  0.89016272  0.95207676  1
  C  C1452  1  0.82777778  0.93945886  0.87747686  1
  C  C1453  1  0.89502261  0.74057007  0.88419313  1
  C  C1454  1  0.94991060  0.71261844  0.88517452  1
  C  C1455  1  0.90669787  0.64624375  0.97592259  1
  C  C1456  1  0.79467174  0.56825463  0.90284013  1
  C  C1457  1  0.87715976  0.82042996  0.93189922  1
  C  C1458  1  0.95930876  0.70480710  0.98348584  1
  H  H1459  1  0.85128274  0.73799404  0.89778955  1
  C  C1460  1  0.85935182  0.57810630  0.96534514  1
  H  H1461  1  0.99306983  0.68193539  0.91758545  1
  C  C1462  1  0.79915589  0.60176544  0.87174215  1
  H  H1463  1  0.90767938  0.88571617  0.96226941  1
  C  C1464  1  0.83230625  0.59629677  0.97585949  1
  C  C1465  1  0.81117132  0.58104116  0.95442561  1
  C  C1466  1  0.92815546  0.81809273  0.92373156  1
  C  C1467  1  0.80492872  0.86891066  0.96639859  1
  C  C1468  1  0.85365436  0.83945657  0.95494102  1
  C  C1469  1  0.92207697  0.76345590  0.89500898  1
  C  C1470  1  0.99018082  0.70144249  0.94121795  1
  H  H1471  1  0.78521364  0.97758627  0.88891938  1
  C  C1472  1  0.76757295  0.54621530  0.91432009  1
  H  H1473  1  0.97488735  0.87459192  0.88790591  1
  C  C1474  1  0.90577762  0.84189502  0.94132285  1
  H  H1475  1  0.89163988  0.69214832  0.86338618  1
  H  H1476  1  0.90953592  0.63784475  0.95164906  1
  C  C1477  1  0.87238623  0.76341658  0.90397853  1
  H  H1478  1  0.94869627  0.83152708  0.93344129  1
  C  C1479  1  0.77287918  0.81915318  0.92554922  1
  H  H1480  1  0.82297790  0.84767564  0.92087254  1
  C  C1481  1  0.88205934  0.60261763  0.98821030  1
  C  C1482  1  0.84280985  0.89171865  0.85264859  1
  H  H1483  1  0.97701423  0.96497555  0.96152568  1
  H  H1484  1  0.83887393  0.98933566  0.89692932  1
  C  C1485  1  0.97715466  0.99617619  0.93749919  1
  H  H1486  1  0.84823759  0.50903630  0.89055438  1
  C  C1487  1  0.84638252  0.52722440  0.91432184  1
