# generated using pymatgen
data_Zn2H28C45O7
_symmetry_space_group_name_H-M   'P 1'
_cell_length_a   44.15553098
_cell_length_b   11.57978416
_cell_length_c   29.08644895
_cell_angle_alpha   90.00000000
_cell_angle_beta   90.00000000
_cell_angle_gamma   90.00000000
_symmetry_Int_Tables_number   1
_chemical_formula_structural   Zn2H28C45O7
_chemical_formula_sum   'Zn32 H448 C720 O112'
_cell_volume   14872.23637472
_cell_formula_units_Z   16
loop_
 _symmetry_equiv_pos_site_id
 _symmetry_equiv_pos_as_xyz
  1  'x, y, z'
loop_
 _atom_site_type_symbol
 _atom_site_label
 _atom_site_symmetry_multiplicity
 _atom_site_fract_x
 _atom_site_fract_y
 _atom_site_fract_z
 _atom_site_occupancy
  H  H0  1  0.08018650  0.96144672  0.19684908  1
  C  C1  1  0.08146608  0.73435485  0.08203753  1
  C  C2  1  0.11067295  0.32322775  0.15602554  1
  H  H3  1  0.07782455  0.45601607  0.13265115  1
  O  O4  1  0.22098202  0.19447487  0.03240661  1
  O  O5  1  0.18774383  0.91822458  0.05106902  1
  C  C6  1  0.12660966  0.27968043  0.19323752  1
  C  C7  1  0.06352513  0.65166919  0.17160576  1
  C  C8  1  0.03266993  0.14401540  0.11085672  1
  H  H9  1  0.06416254  0.61967824  0.13706880  1
  C  C10  1  0.07785144  0.58978461  0.20852764  1
  H  H11  1  0.21661213  0.33022435  0.21418119  1
  C  C12  1  0.09711993  0.48376170  0.20200817  1
  H  H13  1  0.08843089  0.75548429  0.11837217  1
  O  O14  1  0.18144719  0.56922234  0.24249761  1
  C  C15  1  0.00915531  0.06316143  0.09631895  1
  H  H16  1  0.12979919  0.44768398  0.02878944  1
  C  C17  1  0.01602863  0.87233145  0.23683328  1
  C  C18  1  0.02807514  0.35035335  0.14807777  1
  H  H19  1  0.13832170  0.65168438  0.22950220  1
  C  C20  1  0.09227623  0.42136328  0.16033680  1
  C  C21  1  0.05470455  0.10530440  0.22279192  1
  H  H22  1  0.03964361  0.10418503  0.19105514  1
  H  H23  1  0.19947132  0.78267913  0.11437665  1
  H  H24  1  0.11215954  0.27507639  0.12136369  1
  O  O25  1  0.14557221  0.11413256  0.01461325  1
  C  C26  1  0.15348721  0.58055385  0.14924444  1
  C  C27  1  0.00614836  0.42182329  0.05838722  1
  C  C28  1  0.04573607  0.74840063  0.17866528  1
  C  C29  1  0.01919512  0.95370830  0.08150706  1
  C  C30  1  0.09720095  0.64326072  0.05776913  1
  C  C31  1  0.23091920  0.63876643  0.11329642  1
  O  O32  1  0.22295077  0.14692188  0.10643598  1
  C  C33  1  0.08701189  0.61139499  0.01342292  1
  H  H34  1  0.03421718  0.32490295  0.18392811  1
  Zn  Zn35  1  0.18592503  0.30475792  0.11046015  1
  C  C36  1  0.13647682  0.47872110  0.06234322  1
  H  H37  1  0.00326390  0.89321256  0.06670446  1
  C  C38  1  0.21698094  0.73366947  0.09472884  1
  C  C39  1  0.07773716  0.02126177  0.22584231  1
  H  H40  1  0.08098243  0.16349287  0.13611019  1
  C  C41  1  0.05041724  0.92275718  0.08167629  1
  C  C42  1  0.15605261  0.42974138  0.09108572  1
  C  C43  1  0.06404774  0.10961680  0.11756313  1
  H  H44  1  0.12108584  0.71902108  0.13446126  1
  H  H45  1  0.03215390  0.78912451  0.15106794  1
  C  C46  1  0.19796430  0.48120733  0.24364466  1
  H  H47  1  0.22650243  0.60921160  0.14801011  1
  O  O48  1  0.14251622  0.12881698  0.13979655  1
  C  C49  1  0.18631900  0.41181752  0.16728514  1
  C  C50  1  0.12382187  0.58362558  0.07974236  1
  C  C51  1  0.20067354  0.40255221  0.20928448  1
  C  C52  1  0.22409869  0.76161692  0.04845687  1
  C  C53  1  0.16770027  0.47461140  0.13462690  1
  C  C54  1  0.07236773  0.99926145  0.10255516  1
  H  H55  1  0.15118477  0.04879687  0.14619984  1
  H  H56  1  0.09632590  0.96776185  0.10704048  1
  C  C57  1  0.06045059  0.80566589  0.05998529  1
  C  C58  1  0.13167867  0.63380532  0.12341282  1
  C  C59  1  0.01782421  0.46333870  0.14423902  1
  H  H60  1  0.10135658  0.81272400  0.21967380  1
  C  C61  1  0.05137772  0.78088516  0.01529069  1
  H  H62  1  0.16089078  0.62162867  0.18177134  1
  C  C63  1  0.14457327  0.17094015  0.18577525  1
  C  C64  1  0.24131446  0.68855573  0.01851676  1
  C  C65  1  0.11610447  0.44742052  0.24076165  1
  C  C66  1  0.13008378  0.34115950  0.23547722  1
  C  C67  1  0.02438772  0.26852125  0.11129685  1
  H  H68  1  0.01975908  0.52485570  0.17226918  1
  C  C69  1  0.20907633  0.87111095  0.03129380  1
  C  C70  1  0.23477157  0.15322882  0.06767252  1
  C  C71  1  0.00777043  0.49806271  0.09905467  1
  C  C72  1  0.04164304  0.78219325  0.22598650  1
  C  C73  1  0.01553671  0.30813896  0.06529015  1
  O  O74  1  0.16015428  0.12316206  0.21300847  1
  H  H75  1  0.01374957  0.25108875  0.03508687  1
  C  C76  1  0.12006688  0.82204540  0.24264575  1
  C  C77  1  0.14056511  0.73581709  0.24979617  1
  O  O78  1  0.11826118  0.26875583  0.01248303  1
  C  C79  1  0.12107186  0.16623746  0.00618291  1
  C  C80  1  0.08026112  0.85138827  0.38407586  1
  H  H81  1  0.09183260  0.79169094  0.36057656  1
  C  C82  1  0.14537684  0.93413636  0.30287537  1
  C  C83  1  0.01101692  0.56280150  0.31675936  1
  C  C84  1  0.16796033  0.85332992  0.30858128  1
  C  C85  1  0.01630387  0.57404702  0.44982466  1
  H  H86  1  0.23128012  0.61648180  0.43050002  1
  C  C87  1  0.03769664  0.34089300  0.45979402  1
  H  H88  1  0.16742262  0.19713372  0.31748788  1
  C  C89  1  0.00448626  0.45951753  0.28631603  1
  C  C90  1  0.04846590  0.84558763  0.39341922  1
  C  C91  1  0.03294908  0.75020497  0.36500577  1
  H  H92  1  0.14631601  0.01374113  0.32249650  1
  C  C93  1  0.09775006  0.92777150  0.41037048  1
  H  H94  1  0.04731756  0.38466600  0.30527414  1
  H  H95  1  0.04105717  0.06956677  0.47081187  1
  C  C96  1  0.03542445  0.54085880  0.34930355  1
  H  H97  1  0.12243591  0.91721157  0.40671600  1
  C  C98  1  0.07524083  0.63510765  0.25370201  1
  C  C99  1  0.04711048  0.63854629  0.37190460  1
  C  C100  1  0.11557403  0.51598834  0.37666215  1
  H  H101  1  0.20288756  0.23497706  0.42119080  1
  H  H102  1  0.12023978  0.31180348  0.33098385  1
  H  H103  1  0.04456562  0.18108451  0.40748293  1
  O  O104  1  0.21169848  0.66742254  0.30064340  1
  O  O105  1  0.13191572  0.07073885  0.46521511  1
  H  H106  1  0.04313390  0.24976932  0.46517112  1
  H  H107  1  0.04155250  0.96674088  0.29006328  1
  O  O108  1  0.18031540  0.64678490  0.46839410  1
  C  C109  1  0.02494483  0.18724083  0.38708793  1
  C  C110  1  0.22791577  0.92208135  0.36854161  1
  Zn  Zn111  1  0.13504290  0.55964453  0.47360593  1
  O  O112  1  0.09436046  0.16639541  0.49489530  1
  C  C113  1  0.22407297  0.22018276  0.40144190  1
  H  H114  1  0.06432477  0.61866318  0.39786837  1
  C  C115  1  0.04759589  0.42737434  0.48804058  1
  C  C116  1  0.14263896  0.35023095  0.33975572  1
  H  H117  1  0.00927682  0.66677488  0.44275387  1
  C  C118  1  0.05216878  0.00947013  0.44904519  1
  C  C119  1  0.03507372  0.92413013  0.42631775  1
  C  C120  1  0.01946314  0.95333758  0.27337400  1
  C  C121  1  0.08421104  0.00625368  0.44216365  1
  C  C122  1  0.02430582  0.27409409  0.25710839  1
  C  C123  1  0.06964202  0.18430510  0.29953579  1
  H  H124  1  0.22915231  0.00889889  0.35351059  1
  H  H125  1  0.22142006  0.48244069  0.37667519  1
  C  C126  1  0.16884402  0.28440519  0.33307406  1
  H  H127  1  0.17388343  0.60208091  0.38844793  1
  H  H128  1  0.04487713  0.45050525  0.35659131  1
  C  C129  1  0.02673562  0.37150797  0.28582334  1
  O  O130  1  0.09384681  0.48526415  0.35363740  1
  H  H131  1  0.06333020  0.22910383  0.33255969  1
  C  C132  1  0.17351251  0.51214137  0.37560063  1
  C  C133  1  0.20647441  0.88612810  0.40079340  1
  C  C134  1  0.19723620  0.32977240  0.34952468  1
  C  C135  1  0.01549993  0.37079655  0.42680321  1
  H  H136  1  0.08570800  0.59636312  0.28449420  1
  H  H137  1  0.03585956  0.03008047  0.35580394  1
  H  H138  1  0.05480524  0.76766303  0.29923108  1
  C  C139  1  0.18148341  0.74550492  0.45283078  1
  H  H140  1  0.20956796  0.50040157  0.48730725  1
  O  O141  1  0.13478010  0.38760113  0.48755811  1
  C  C142  1  0.20653514  0.77443014  0.42026663  1
  O  O143  1  0.16272308  0.82559928  0.46125334  1
  C  C144  1  0.14587897  0.45393948  0.36363556  1
  H  H145  1  0.18655513  0.87274753  0.33272474  1
  C  C146  1  0.19917167  0.44285424  0.36909014  1
  H  H147  1  0.18733780  0.94404161  0.40996698  1
  C  C148  1  0.10372189  0.08341252  0.47012994  1
  H  H149  1  0.12954030  0.33817774  0.46204510  1
  O  O150  1  0.11293905  0.58870936  0.40868968  1
  C  C151  1  0.23121507  0.70079152  0.41180934  1
  C  C152  1  0.22539238  0.25262624  0.35484747  1
  C  C153  1  0.01989195  0.09955168  0.35372652  1
  C  C154  1  0.12058121  0.92183672  0.27064355  1
  C  C155  1  0.03796550  0.54474587  0.48246390  1
  C  C156  1  0.16518180  0.75049543  0.28152699  1
  C  C157  1  0.05647347  0.72946399  0.26311863  1
  H  H158  1  0.24227514  0.88073885  0.26931170  1
  H  H159  1  0.01070323  0.91211744  0.43253373  1
  H  H160  1  0.11663545  0.49248517  0.27326096  1
  C  C161  1  0.09645617  0.01206683  0.26509618  1
  C  C162  1  0.05063219  0.18756959  0.25898266  1
  C  C163  1  0.18857009  0.66486970  0.28095613  1
  C  C164  1  0.00516685  0.28465547  0.39080812  1
  C  C165  1  0.09136779  0.10007048  0.30073488  1
  H  H166  1  0.10154513  0.09957827  0.33419804  1
  H  H167  1  0.21278402  0.47644585  0.27631088  1
  C  C168  1  0.00389092  0.48110792  0.42390726  1
  C  C169  1  0.00723988  0.76527788  0.33617314  1
  H  H170  1  0.14561213  0.31391839  0.26307236  1
  C  C171  1  0.24856038  0.22976501  0.32281369  1
  H  H172  1  0.24866579  0.26920895  0.28760245  1
  C  C173  1  0.24909745  0.15481215  0.41764638  1
  C  C174  1  0.22376447  0.43019907  0.49821746  1
  H  H175  1  0.18651070  0.29419045  0.50121229  1
  O  O176  1  0.03831723  0.47523002  0.63053585  1
  C  C177  1  0.03931797  0.32043874  0.71763597  1
  C  C178  1  0.21073014  0.31935234  0.50684693  1
  C  C179  1  0.01635683  0.74041879  0.73227469  1
  O  O180  1  0.03309396  0.81687856  0.63775709  1
  O  O181  1  0.06600749  0.32172430  0.70447731  1
  H  H182  1  0.09322337  0.21368841  0.60551886  1
  O  O183  1  0.07297758  0.70965732  0.64253089  1
  Zn  Zn184  1  0.02378442  0.83617472  0.56805821  1
  H  H185  1  0.20085389  0.57613545  0.69594186  1
  H  H186  1  0.06516480  0.07308217  0.55891292  1
  C  C187  1  0.04158032  0.70735835  0.70768454  1
  O  O188  1  0.02654352  0.41600696  0.72752720  1
  C  C189  1  0.24992053  0.73195384  0.62791652  1
  Zn  Zn190  1  0.08109634  0.39420118  0.63723329  1
  C  C191  1  0.18400573  0.51636122  0.70982692  1
  H  H192  1  0.19267554  0.79947322  0.64898291  1
  H  H193  1  0.02488712  0.92677967  0.69844817  1
  O  O194  1  0.06829744  0.59617481  0.54315516  1
  O  O195  1  0.04377315  0.73808223  0.50946419  1
  H  H196  1  0.06228892  0.40560925  0.51397213  1
  C  C197  1  0.16148623  0.56480680  0.74006558  1
  H  H198  1  0.04182743  0.56045879  0.63025425  1
  H  H199  1  0.05732347  0.09903382  0.70004869  1
  C  C200  1  0.01534424  0.00799441  0.70636523  1
  C  C201  1  0.16677981  0.54726300  0.60584063  1
  O  O202  1  0.08544703  0.27212071  0.58996504  1
  C  C203  1  0.15615706  0.33216226  0.70677409  1
  H  H204  1  0.19544487  0.24055280  0.64439863  1
  H  H205  1  0.08248219  0.60368885  0.70679834  1
  H  H206  1  0.23122146  0.41133745  0.68835234  1
  C  C207  1  0.04871525  0.74707053  0.65940992  1
  O  O208  1  0.11389601  0.51936648  0.61897309  1
  C  C209  1  0.06366067  0.63188759  0.72731373  1
  H  H210  1  0.14471573  0.68782842  0.63983660  1
  C  C211  1  0.12025865  0.05672805  0.66253221  1
  C  C212  1  0.12706615  0.15321843  0.69160860  1
  C  C213  1  0.14275102  0.02325590  0.63287118  1
  C  C214  1  0.13907083  0.47539124  0.60571611  1
  H  H215  1  0.09824453  0.00832630  0.66515270  1
  C  C216  1  0.22161819  0.55579060  0.59285946  1
  O  O217  1  0.05107515  0.01763131  0.57173006  1
  O  O218  1  0.11207541  0.87495314  0.60798649  1
  C  C219  1  0.17438750  0.18681885  0.64734478  1
  C  C220  1  0.15229256  0.22098753  0.68113139  1
  C  C221  1  0.17028692  0.08115857  0.62596194  1
  C  C222  1  0.03387768  0.10233161  0.70897519  1
  O  O223  1  0.15720690  0.87719911  0.57741992  1
  C  C224  1  0.19367209  0.71294333  0.63275720  1
  Zn  Zn225  1  0.10147275  0.70364020  0.58292430  1
  C  C226  1  0.19423229  0.50136579  0.58731341  1
  O  O227  1  0.14189498  0.37318965  0.59258951  1
  H  H228  1  0.18872691  0.04542470  0.60249227  1
  C  C229  1  0.16640245  0.65462296  0.62669911  1
  H  H230  1  0.19333607  0.41563624  0.57059282  1
  C  C231  1  0.13780634  0.91646522  0.60320293  1
  H  H232  1  0.10785674  0.19193372  0.71173389  1
  Zn  Zn233  1  0.00176134  0.50995449  0.67323763  1
  C  C234  1  0.17845085  0.40937499  0.68860109  1
  Zn  Zn235  1  0.11745653  0.28582625  0.53733809  1
  H  H236  1  0.19137648  0.38558244  0.66029216  1
  C  C237  1  0.22089110  0.66981989  0.61435232  1
  H  H238  1  0.03184747  0.01903056  0.55268371  1
  C  C239  1  0.02108457  0.21141191  0.71881248  1
  H  H240  1  0.24380150  0.51855485  0.58247857  1
  C  C241  1  0.05154477  0.63591796  0.51207973  1
  H  H242  1  0.00117089  0.46071036  0.54277918  1
  H  H243  1  0.23982031  0.87514478  0.71817917  1
  O  O244  1  0.12358362  0.66927707  0.51978766  1
  C  C245  1  0.21621066  0.11069146  0.52902399  1
  H  H246  1  0.24510184  0.87251025  0.57779287  1
  O  O247  1  0.22996860  0.02575143  0.53863384  1
  C  C248  1  0.23057525  0.23117415  0.52198243  1
  H  H249  1  0.23116006  0.64847364  0.51201714  1
  O  O250  1  0.18758465  0.11021439  0.52145765  1
  H  H251  1  0.14070405  0.72127364  0.51384133  1
  H  H252  1  0.11202453  0.32758065  0.74797077  1
  C  C253  1  0.24223503  0.92918852  0.74853985  1
  C  C254  1  0.13385241  0.37282432  0.73893002  1
  Zn  Zn255  1  0.16294947  0.96262791  0.50793523  1
  C  C256  1  0.07205817  0.58094500  0.91951123  1
  H  H257  1  0.07232305  0.77688840  0.79296730  1
  H  H258  1  0.04939142  0.30569746  0.80342993  1
  C  C259  1  0.02449583  0.71884792  0.87882424  1
  C  C260  1  0.05496631  0.66509188  0.94529945  1
  H  H261  1  0.07842345  0.54171064  0.78460385  1
  H  H262  1  0.03913368  0.45487839  0.97303852  1
  C  C263  1  0.02939578  0.72561950  0.92624836  1
  C  C264  1  0.07739304  0.87053893  0.79622056  1
  C  C265  1  0.04185876  0.63652297  0.85040422  1
  C  C266  1  0.16333024  0.91251108  0.78455099  1
  H  H267  1  0.11300849  0.68293961  0.76050854  1
  H  H268  1  0.08981996  0.20737688  0.80835876  1
  C  C269  1  0.06453814  0.56840391  0.87320683  1
  C  C270  1  0.01355278  0.70766287  0.77850722  1
  C  C271  1  0.05608534  0.06681100  0.81418364  1
  H  H272  1  0.09010501  0.81181830  0.89001031  1
  C  C273  1  0.10730075  0.86736317  0.90766780  1
  C  C274  1  0.13508821  0.85747908  0.77954036  1
  C  C275  1  0.10236866  0.00364324  0.90380525  1
  C  C276  1  0.16280126  0.68735539  0.75945536  1
  Zn  Zn277  1  0.17754517  0.73030806  0.90802782  1
  C  C278  1  0.07904840  0.06085975  0.93969372  1
  H  H279  1  0.09075411  0.53221341  0.93551894  1
  C  C280  1  0.16174632  0.02584512  0.90521219  1
  C  C281  1  0.09391679  0.10308856  0.98195167  1
  C  C282  1  0.22748347  0.51037646  0.82429800  1
  H  H283  1  0.16365029  0.00218898  0.79401420  1
  C  C284  1  0.22492351  0.98430587  0.82793070  1
  C  C285  1  0.05310950  0.94168802  0.81150783  1
  C  C286  1  0.23774299  0.62020033  0.89667115  1
  C  C287  1  0.01560945  0.34456984  0.84927330  1
  H  H288  1  0.09634300  0.02534217  0.86747522  1
  O  O289  1  0.18624679  0.07195842  0.91626230  1
  Zn  Zn290  1  0.10299060  0.93292286  0.97502290  1
  O  O291  1  0.21072616  0.60117676  0.90980151  1
  C  C292  1  0.03499511  0.26610033  0.82907208  1
  H  H293  1  0.03316106  0.90483788  0.82821646  1
  C  C294  1  0.03330104  0.14378220  0.83532409  1
  C  C295  1  0.15941112  0.89423230  0.90346131  1
  C  C296  1  0.13863192  0.82811789  0.90213028  1
  C  C297  1  0.08508813  0.11617861  0.80168955  1
  O  O298  1  0.13793512  0.08417361  0.90559689  1
  C  C299  1  0.03710293  0.64621793  0.80031589  1
  H  H300  1  0.24036636  0.70667513  0.98107956  1
  H  H301  1  0.07167436  0.49578578  0.85234736  1
  C  C302  1  0.00706988  0.10167174  0.85851626  1
  H  H303  1  0.11901701  0.52194846  0.77611631  1
  H  H304  1  0.01766060  0.43641565  0.84081227  1
  O  O305  1  0.04826332  0.01420869  0.93822334  1
  O  O306  1  0.21581893  0.91271485  0.99235869  1
  H  H307  1  0.01448748  0.77863851  0.94971481  1
  H  H308  1  0.20526837  0.49589380  0.83984473  1
  H  H309  1  0.20973190  0.97328758  0.85673226  1
  C  C310  1  0.13676882  0.48849887  0.75253590  1
  C  C311  1  0.10935889  0.05059671  0.78729804  1
  C  C312  1  0.10665195  0.92622764  0.78696832  1
  C  C313  1  0.06136372  0.59811926  0.77168668  1
  Zn  Zn314  1  0.06427972  0.23172331  0.96760874  1
  C  C315  1  0.19249897  0.73811606  0.76585968  1
  H  H316  1  0.04601167  0.01769622  0.90484788  1
  H  H317  1  0.13023765  0.09507929  0.77779110  1
  O  O318  1  0.03004465  0.38250679  0.97100123  1
  H  H319  1  0.00222669  0.01138145  0.85980970  1
  H  H320  1  0.02064858  0.39501002  0.93996729  1
  C  C321  1  0.06380009  0.68405269  0.99421012  1
  C  C322  1  0.23682393  0.46719453  0.78114772  1
  H  H323  1  0.21460523  0.69943520  0.75763426  1
  C  C324  1  0.24804400  0.58294364  0.84745279  1
  Zn  Zn325  1  0.19526671  0.08330837  0.99025806  1
  C  C326  1  0.22022946  0.93199204  0.78399353  1
  C  C327  1  0.19132407  0.85431138  0.78035464  1
  C  C328  1  0.13375049  0.73616854  0.76738983  1
  H  H329  1  0.09620522  0.53528200  0.99597156  1
  H  H330  1  0.22259333  0.41187710  0.75932378  1
  H  H331  1  0.00784015  0.77407678  0.86264074  1
  H  H332  1  0.03386946  0.83092660  0.99348616  1
  C  C333  1  0.28501290  0.53382307  0.15775829  1
  C  C334  1  0.49675924  0.13791918  0.14628950  1
  C  C335  1  0.27612682  0.49682407  0.11268700  1
  H  H336  1  0.49855477  0.71821713  0.09208275  1
  C  C337  1  0.28270364  0.38236925  0.09703207  1
  H  H338  1  0.32169889  0.57915078  0.05688990  1
  C  C339  1  0.30782340  0.03556116  0.11130749  1
  H  H340  1  0.27744329  0.62296005  0.16779156  1
  C  C341  1  0.33153640  0.09612318  0.24221490  1
  H  H342  1  0.26384157  0.06310116  0.14049736  1
  H  H343  1  0.43035029  0.00146882  0.02137127  1
  H  H344  1  0.30748052  0.22855206  0.11017905  1
  C  C345  1  0.30405346  0.46390110  0.18565723  1
  C  C346  1  0.42407393  0.03358691  0.09354846  1
  H  H347  1  0.40642288  0.58431384  0.19133885  1
  H  H348  1  0.37367730  0.37381067  0.19866970  1
  C  C349  1  0.26676784  0.11110991  0.06723510  1
  H  H350  1  0.31203519  0.49525976  0.21978038  1
  H  H351  1  0.28614755  0.76566253  0.05547188  1
  C  C352  1  0.27822091  0.07303805  0.10995324  1
  Zn  Zn353  1  0.41969596  0.33384208  0.10803594  1
  C  C354  1  0.46546983  0.14673880  0.13210673  1
  O  O355  1  0.44896361  0.23073817  0.14357560  1
  H  H356  1  0.46503768  0.87943659  0.07324918  1
  C  C357  1  0.37980701  0.47417618  0.05681872  1
  H  H358  1  0.26875224  0.52949737  0.01935875  1
  C  C359  1  0.36188824  0.04819123  0.07629097  1
  C  C360  1  0.33520376  0.78222299  0.11695586  1
  C  C361  1  0.30713221  0.78525088  0.03835059  1
  C  C362  1  0.47797901  0.54930083  0.08859072  1
  O  O363  1  0.44296001  0.48127754  0.14038343  1
  Zn  Zn364  1  0.39296972  0.67229775  0.13032856  1
  O  O365  1  0.38791683  0.54135621  0.19973076  1
  O  O366  1  0.36032025  0.80656751  0.13850391  1
  C  C367  1  0.36208507  0.29618577  0.20980792  1
  H  H368  1  0.46771638  0.36600464  0.08622205  1
  C  C369  1  0.37286550  0.06201789  0.12168051  1
  O  O370  1  0.37755600  0.51902621  0.09566597  1
  H  H371  1  0.27503644  0.35099121  0.06346694  1
  C  C372  1  0.45770047  0.04222003  0.10633203  1
  H  H373  1  0.41111019  0.05818946  0.16816558  1
  H  H374  1  0.43605282  0.29312567  0.20479240  1
  H  H375  1  0.48593202  0.36313594  0.14340212  1
  H  H376  1  0.35715385  0.08005934  0.15040680  1
  C  C377  1  0.38197913  0.03738927  0.03843968  1
  H  H378  1  0.31842488  0.99044265  0.14184240  1
  C  C379  1  0.31636649  0.10378074  0.02993162  1
  C  C380  1  0.28588267  0.12537408  0.02809287  1
  C  C381  1  0.30151806  0.31308314  0.12466464  1
  H  H382  1  0.29182394  0.15855258  0.20255549  1
  C  C383  1  0.45232851  0.57309830  0.12148042  1
  C  C384  1  0.32837787  0.05731370  0.07129201  1
  O  O385  1  0.31312785  0.75842551  0.13762048  1
  C  C386  1  0.25433154  0.57812716  0.08775351  1
  C  C387  1  0.40354490  0.05427988  0.13157884  1
  C  C388  1  0.33409670  0.79113460  0.06314752  1
  C  C389  1  0.48306943  0.43461915  0.07358370  1
  C  C390  1  0.41319642  0.02431334  0.04719014  1
  C  C391  1  0.31257994  0.35504154  0.16707164  1
  O  O392  1  0.44110471  0.66890612  0.13304048  1
  H  H393  1  0.38476651  0.81102739  0.06455996  1
  O  O394  1  0.40037086  0.39571126  0.05156951  1
  C  C395  1  0.47515240  0.95483831  0.09095694  1
  H  H396  1  0.32382923  0.34998145  0.05069522  1
  C  C397  1  0.36290816  0.80577307  0.04360884  1
  C  C398  1  0.43656465  0.26484717  0.24123708  1
  C  C399  1  0.31570746  0.17328418  0.21213092  1
  C  C400  1  0.33149285  0.27117676  0.19707902  1
  H  H401  1  0.27717144  0.00725949  0.21653721  1
  C  C402  1  0.37751454  0.21837267  0.24074363  1
  H  H403  1  0.37196083  0.54708967  0.17385838  1
  C  C404  1  0.32482618  0.53545750  0.02353268  1
  H  H405  1  0.47902495  0.25922305  0.02043895  1
  C  C406  1  0.25657248  0.59523639  0.03822836  1
  H  H407  1  0.37436835  0.02785963  0.00326721  1
  C  C408  1  0.35453945  0.47775777  0.02154232  1
  C  C409  1  0.33062025  0.40194050  0.02019414  1
  H  H410  1  0.48387518  0.27293203  0.24441792  1
  C  C411  1  0.29800267  0.06869227  0.41148637  1
  C  C412  1  0.27271214  0.13217003  0.38659311  1
  H  H413  1  0.44938395  0.04460571  0.49807053  1
  C  C414  1  0.31545336  0.68246289  0.47420192  1
  H  H415  1  0.39666305  0.94876349  0.48850519  1
  H  H416  1  0.34829133  0.99383448  0.32026622  1
  H  H417  1  0.32890317  0.21205313  0.41175389  1
  C  C418  1  0.28886720  0.96041924  0.43203439  1
  C  C419  1  0.32607436  0.11924155  0.41830269  1
  C  C420  1  0.40756839  0.24508168  0.26392302  1
  H  H421  1  0.33871526  0.68963104  0.45886715  1
  H  H422  1  0.25095492  0.13106227  0.45456168  1
  H  H423  1  0.26649567  0.92713164  0.42784161  1
  H  H424  1  0.36775931  0.25595894  0.40684079  1
  C  C425  1  0.30212091  0.57417154  0.48497508  1
  H  H426  1  0.29133103  0.13751507  0.31795857  1
  C  C427  1  0.26534585  0.90672128  0.28019632  1
  C  C428  1  0.27087455  0.56302108  0.49882666  1
  C  C429  1  0.32602954  0.96321378  0.30875249  1
  C  C430  1  0.30763958  0.90247252  0.33807001  1
  C  C431  1  0.26649092  0.77679567  0.49364323  1
  C  C432  1  0.41276855  0.26064853  0.43484056  1
  C  C433  1  0.31354876  0.00632104  0.26715208  1
  C  C434  1  0.47928360  0.66013890  0.47188596  1
  C  C435  1  0.29712705  0.78618270  0.47747379  1
  H  H436  1  0.31592349  0.87523300  0.37133260  1
  C  C437  1  0.38499830  0.20884787  0.42962240  1
  C  C438  1  0.46625950  0.26427570  0.46987050  1
  C  C439  1  0.34756855  0.04959213  0.44335931  1
  H  H440  1  0.25186570  0.85444969  0.49716686  1
  H  H441  1  0.38476805  0.21027389  0.33079252  1
  C  C442  1  0.46336833  0.25641319  0.26399939  1
  C  C443  1  0.49269999  0.21662084  0.33815355  1
  H  H444  1  0.43554386  0.18553642  0.37222938  1
  C  C445  1  0.25354571  0.84717231  0.36091063  1
  H  H446  1  0.35794133  0.88982390  0.47523150  1
  H  H447  1  0.46726843  0.35548654  0.40158504  1
  H  H448  1  0.27551249  0.68354973  0.37811318  1
  C  C449  1  0.40741140  0.22090679  0.31282968  1
  C  C450  1  0.27257937  0.16426968  0.33896713  1
  C  C451  1  0.46286037  0.23341561  0.31350056  1
  H  H452  1  0.47607719  0.08575710  0.38992255  1
  C  C453  1  0.37874003  0.09655745  0.44923738  1
  H  H454  1  0.31367994  0.49455263  0.47919109  1
  H  H455  1  0.41772054  0.34666458  0.42576694  1
  C  C456  1  0.43535004  0.21093328  0.33732419  1
  H  H457  1  0.47463371  0.57984537  0.45564945  1
  C  C458  1  0.47983249  0.33808271  0.43476795  1
  C  C459  1  0.30967728  0.89777975  0.45917205  1
  C  C460  1  0.34044023  0.93930773  0.45827266  1
  C  C461  1  0.43645847  0.20102249  0.46063541  1
  C  C462  1  0.27701733  0.87655992  0.32492772  1
  C  C463  1  0.40219729  0.03553617  0.47257185  1
  C  C464  1  0.25550822  0.73930814  0.38391410  1
  C  C465  1  0.45624282  0.71662625  0.49724641  1
  H  H466  1  0.37433786  0.04863662  0.27514223  1
  C  C467  1  0.43095512  0.08846095  0.47824936  1
  C  C468  1  0.36265726  0.11446121  0.25458640  1
  C  C469  1  0.49548373  0.13873226  0.37643784  1
  H  H470  1  0.38143365  0.26768692  0.49923687  1
  C  C471  1  0.28349710  0.97456516  0.25172739  1
  C  C472  1  0.33811644  0.43927337  0.57313529  1
  H  H473  1  0.33609609  0.53466769  0.58121042  1
  C  C474  1  0.36483424  0.29207376  0.52671015  1
  C  C475  1  0.32369456  0.34884944  0.59543439  1
  C  C476  1  0.30491521  0.37742463  0.64075192  1
  C  C477  1  0.32712085  0.23111321  0.58448410  1
  H  H478  1  0.31850863  0.15676223  0.60478625  1
  C  C479  1  0.34931993  0.20340598  0.55173360  1
  C  C480  1  0.33922242  0.98652748  0.55462324  1
  H  H481  1  0.33395513  0.80212443  0.55738026  1
  C  C482  1  0.34849601  0.87672028  0.56553831  1
  C  C483  1  0.36005722  0.08107853  0.55426699  1
  H  H484  1  0.49463193  0.96006037  0.53097389  1
  C  C485  1  0.35828239  0.40657366  0.53726361  1
  C  C486  1  0.25707912  0.84437414  0.60956052  1
  C  C487  1  0.32208425  0.41820358  0.67829525  1
  C  C488  1  0.32318163  0.89135581  0.74286595  1
  H  H489  1  0.26088400  0.60207012  0.67936607  1
  C  C490  1  0.25581945  0.44830955  0.50394885  1
  H  H491  1  0.47157575  0.18488956  0.53963079  1
  H  H492  1  0.44218499  0.86924251  0.53801204  1
  C  C493  1  0.37653643  0.62335476  0.67559436  1
  C  C494  1  0.41026641  0.45141131  0.51054387  1
  H  H495  1  0.36000789  0.97667801  0.64276633  1
  C  C496  1  0.28274827  0.90471085  0.62745966  1
  H  H497  1  0.34696449  0.42695042  0.67122309  1
  C  C498  1  0.25760380  0.41686026  0.68215106  1
  C  C499  1  0.45553607  0.94354604  0.65705277  1
  C  C500  1  0.41196787  0.45180628  0.68820647  1
  H  H501  1  0.29022086  0.98424124  0.61101610  1
  H  H502  1  0.30387350  0.72641147  0.71203699  1
  H  H503  1  0.45392849  0.23928992  0.67788746  1
  C  C504  1  0.29049293  0.75449047  0.68324632  1
  C  C505  1  0.48942519  0.87513366  0.51401352  1
  C  C506  1  0.26614068  0.68655569  0.66565949  1
  C  C507  1  0.40228337  0.56078043  0.66232059  1
  H  H508  1  0.44085203  0.52966376  0.61802138  1
  H  H509  1  0.42308194  0.95306143  0.60066254  1
  C  C510  1  0.49605417  0.08773862  0.64084324  1
  C  C511  1  0.35384027  0.96053222  0.67851060  1
  H  H512  1  0.29823953  0.37316807  0.52361061  1
  C  C513  1  0.32520297  0.91375054  0.69445183  1
  H  H514  1  0.29618240  0.67013792  0.55707334  1
  C  C515  1  0.27733976  0.45611540  0.71893688  1
  O  O516  1  0.43195155  0.39447164  0.67150521  1
  C  C517  1  0.37656395  0.97124506  0.71295572  1
  O  O518  1  0.31134306  0.67180388  0.57995091  1
  C  C519  1  0.44483282  0.15036953  0.67502945  1
  H  H520  1  0.42782253  0.70627137  0.56865605  1
  C  C521  1  0.29822204  0.86628173  0.66713595  1
  C  C522  1  0.37878308  0.86163208  0.58249508  1
  H  H523  1  0.30076728  0.71370345  0.60717929  1
  C  C524  1  0.38999681  0.06943563  0.57192570  1
  C  C525  1  0.40763792  0.00037462  0.69006794  1
  H  H526  1  0.49185235  0.27082214  0.64630427  1
  H  H527  1  0.36250117  0.59914523  0.70494434  1
  C  C528  1  0.41302105  0.68604642  0.59910884  1
  C  C529  1  0.38804805  0.75892350  0.61077949  1
  C  C530  1  0.39911777  0.96039549  0.58611955  1
  O  O531  1  0.39673903  0.41783646  0.72304301  1
  C  C532  1  0.46065222  0.82808869  0.51796719  1
  C  C533  1  0.41628177  0.11904523  0.69161328  1
  C  C534  1  0.27259917  0.37651760  0.64230942  1
  C  C535  1  0.42002991  0.58340683  0.62344601  1
  C  C536  1  0.46419737  0.06316415  0.65725386  1
  H  H537  1  0.40531173  0.14810961  0.57158900  1
  H  H538  1  0.42111069  0.81827447  0.67468870  1
  C  C539  1  0.37021955  0.72220253  0.64976651  1
  H  H540  1  0.40070522  0.18736783  0.70559350  1
  H  H541  1  0.35186917  0.77593938  0.66044406  1
  C  C542  1  0.30988804  0.45508465  0.71959134  1
  H  H543  1  0.46057030  0.99969487  0.72852681  1
  C  C544  1  0.42827214  0.91010629  0.67678099  1
  H  H545  1  0.47072853  0.88140323  0.64239983  1
  H  H546  1  0.28558111  0.01134074  0.72305855  1
  H  H547  1  0.25944762  0.34298869  0.61390736  1
  C  C548  1  0.27420789  0.35192017  0.51810444  1
  C  C549  1  0.26192252  0.24344474  0.52600072  1
  H  H550  1  0.27784201  0.17731440  0.53931197  1
  C  C551  1  0.37389821  0.61514769  0.51906692  1
  C  C552  1  0.38120262  0.49675489  0.52006331  1
  H  H553  1  0.31748429  0.00923776  0.53845350  1
  H  H554  1  0.35214723  0.64151011  0.52986736  1
  H  H555  1  0.41394671  0.35823736  0.51657691  1
  C  C556  1  0.25438242  0.66919608  0.50302693  1
  H  H557  1  0.48627265  0.11429720  0.73348701  1
  H  H558  1  0.32367536  0.49405998  0.74744715  1
  C  C559  1  0.26712728  0.00631933  0.74989913  1
  H  H560  1  0.39268259  0.78379103  0.51470647  1
  H  H561  1  0.45747507  0.49077784  0.50325114  1
  C  C562  1  0.48122612  0.24476258  0.51401202  1
  C  C563  1  0.43442421  0.52725445  0.50404111  1
  C  C564  1  0.42717391  0.64774216  0.50241690  1
  C  C565  1  0.39777900  0.69276083  0.51102614  1
  C  C566  1  0.34981367  0.43649530  0.85691630  1
  C  C567  1  0.28491998  0.59206004  0.78637862  1
  C  C568  1  0.45916942  0.18511524  0.79004092  1
  C  C569  1  0.42917754  0.03962247  0.83894125  1
  H  H570  1  0.48761640  0.78181972  0.83404617  1
  H  H571  1  0.43205424  0.27221541  0.84306301  1
  C  C572  1  0.31245440  0.89868092  0.85059805  1
  H  H573  1  0.29455557  0.95400189  0.83298399  1
  H  H574  1  0.28754359  0.69132184  0.85378331  1
  C  C575  1  0.44558111  0.06406393  0.79779827  1
  H  H576  1  0.28948761  0.42670022  0.86292423  1
  C  C577  1  0.29859902  0.35526129  0.84028485  1
  C  C578  1  0.31012000  0.88517476  0.89774622  1
  C  C579  1  0.34610857  0.90949114  0.77516562  1
  H  H580  1  0.39379102  0.95426249  0.78612368  1
  C  C581  1  0.34037139  0.87902568  0.82677710  1
  O  O582  1  0.33283845  0.22354733  0.93687603  1
  C  C583  1  0.34331771  0.14411339  0.91720458  1
  H  H584  1  0.29057844  0.92108464  0.91776318  1
  C  C585  1  0.43015073  0.09908998  0.95016451  1
  H  H586  1  0.37383932  0.00587033  0.89415351  1
  Zn  Zn587  1  0.39237216  0.51418612  0.78464478  1
  H  H588  1  0.48508011  0.96952252  0.86150891  1
  C  C589  1  0.34072364  0.26150850  0.80379984  1
  H  H590  1  0.46431780  0.45877770  0.83841496  1
  H  H591  1  0.27553095  0.15657817  0.99428653  1
  C  C592  1  0.42548711  0.92355192  0.85040883  1
  Zn  Zn593  1  0.40199291  0.26876603  0.97651366  1
  C  C594  1  0.39806245  0.12162007  0.93994217  1
  H  H595  1  0.38630151  0.77211595  0.91221959  1
  O  O596  1  0.33874092  0.50863320  0.88311856  1
  C  C597  1  0.26916873  0.07309261  0.79223743  1
  C  C598  1  0.30963246  0.79825637  0.99070671  1
  H  H599  1  0.43925466  0.91807228  0.92322919  1
  C  C600  1  0.45150383  0.28047044  0.81975026  1
  C  C601  1  0.37370360  0.08423380  0.91575731  1
  H  H602  1  0.38592202  0.79896174  0.82825054  1
  C  C603  1  0.37502545  0.95145826  0.76044724  1
  C  C604  1  0.46886994  0.38242994  0.81546379  1
  H  H605  1  0.41243402  0.91428099  0.88356469  1
  H  H606  1  0.42190772  0.10918820  0.86319373  1
  C  C607  1  0.28017491  0.26581546  0.82285861  1
  C  C608  1  0.32992868  0.35134878  0.83249659  1
  H  H609  1  0.36419402  0.25567114  0.79428779  1
  C  C610  1  0.48962270  0.09792910  0.98205695  1
  C  C611  1  0.43075916  0.70513914  0.82898664  1
  C  C612  1  0.36634088  0.82666167  0.84835186  1
  O  O613  1  0.43269602  0.62682974  0.79622902  1
  C  C614  1  0.33743285  0.84280164  0.91841661  1
  H  H615  1  0.35534946  0.62027303  0.80736626  1
  O  O616  1  0.37795463  0.44040977  0.84554440  1
  C  C617  1  0.32394428  0.17548149  0.78350380  1
  H  H618  1  0.30516420  0.62944435  0.76974510  1
  H  H619  1  0.32097631  0.10302284  0.90098319  1
  C  C620  1  0.43536046  0.83852227  0.81903712  1
  O  O621  1  0.42441985  0.67725258  0.86762680  1
  C  C622  1  0.44484468  0.86274982  0.77429943  1
  C  C623  1  0.36477601  0.80552271  0.89641919  1
  C  C624  1  0.44897795  0.99169485  0.94030640  1
  C  C625  1  0.44179156  0.18946619  0.97964587  1
  C  C626  1  0.47754097  0.99698783  0.95909759  1
  H  H627  1  0.25565384  0.27087144  0.82998468  1
  H  H628  1  0.38737470  0.85571216  0.97933427  1
  C  C629  1  0.36559097  0.82633508  0.99645230  1
  O  O630  1  0.35185055  0.63635134  0.77470242  1
  C  C631  1  0.29237683  0.16903225  0.79793078  1
  C  C632  1  0.33841721  0.82112013  0.96964073  1
  H  H633  1  0.36309587  0.71625187  0.77079227  1
  H  H634  1  0.28874198  0.79753472  0.97229328  1
  H  H635  1  0.33369746  0.10638653  0.76024676  1
  Zn  Zn636  1  0.32831958  0.49971676  0.95735993  1
  C  C637  1  0.48275036  0.18754504  0.75688893  1
  C  C638  1  0.26636012  0.50690804  0.76464771  1
  C  C639  1  0.47057780  0.18973460  0.99781228  1
  C  C640  1  0.27628489  0.62377307  0.83102094  1
  C  C641  1  0.45192542  0.97874175  0.76310763  1
  H  H642  1  0.48026939  0.32287242  0.92243561  1
  O  O643  1  0.25433605  0.68038779  0.91821758  1
  H  H644  1  0.48298276  0.12308171  0.89830606  1
  H  H645  1  0.30044598  0.86595728  0.75546739  1
  H  H646  1  0.49366906  0.92418895  0.95934992  1
  H  H647  1  0.49420380  0.62947071  0.81240610  1
  C  C648  1  0.49286104  0.38628113  0.78270365  1
  H  H649  1  0.45054053  0.79240922  0.75008444  1
  H  H650  1  0.25350864  0.10887604  0.86351728  1
  C  C651  1  0.25009684  0.05446925  0.83238318  1
  C  C652  1  0.49919576  0.29642107  0.90171052  1
  H  H653  1  0.33021110  0.11595113  0.99906713  1
  C  C654  1  0.49936843  0.29220141  0.75423274  1
  C  C655  1  0.50734669  0.96473000  0.09984502  1
  C  C656  1  0.58524797  0.76683530  0.07836943  1
  C  C657  1  0.61317155  0.69959490  0.06853592  1
  C  C658  1  0.52641848  0.59459824  0.05456078  1
  C  C659  1  0.57306060  0.81965986  0.03710635  1
  O  O660  1  0.66281035  0.06149705  0.02288047  1
  C  C661  1  0.56343562  0.14790707  0.04139056  1
  H  H662  1  0.54311790  0.66439483  0.04922814  1
  C  C663  1  0.74460109  0.81169591  0.07473310  1
  C  C664  1  0.53175401  0.14187336  0.03427783  1
  C  C665  1  0.52993751  0.48319355  0.03536637  1
  H  H666  1  0.58698723  0.33634440  0.18518203  1
  H  H667  1  0.51413751  0.16138362  0.05968687  1
  H  H668  1  0.58911927  0.97851170  0.23444390  1
  H  H669  1  0.60382967  0.57954395  0.12748696  1
  C  C670  1  0.51323735  0.43436174  0.19797512  1
  H  H671  1  0.51094429  0.30697587  0.04328236  1
  C  C672  1  0.54591596  0.87844139  0.04213173  1
  H  H673  1  0.64403744  0.44711447  0.10608076  1
  C  C674  1  0.53429955  0.88501739  0.08861814  1
  H  H675  1  0.63289788  0.31408894  0.23481669  1
  Zn  Zn676  1  0.72479105  0.27982441  0.03602591  1
  C  C677  1  0.51758556  0.05712332  0.12761345  1
  O  O678  1  0.70489628  0.47376609  0.00924229  1
  C  C679  1  0.69018795  0.06846479  0.01401391  1
  H  H680  1  0.53651159  0.85685390  0.16395461  1
  C  C681  1  0.66110346  0.55348613  0.04806046  1
  C  C682  1  0.69435717  0.87773218  0.05314054  1
  C  C683  1  0.54810208  0.28780828  0.23545239  1
  C  C684  1  0.50306064  0.34518048  0.16976317  1
  C  C685  1  0.57422741  0.77988563  0.12383851  1
  H  H686  1  0.70388323  0.72295916  0.09545987  1
  H  H687  1  0.50581515  0.52537804  0.19055265  1
  C  C688  1  0.58823763  0.26326885  0.15985695  1
  H  H689  1  0.56871268  0.34869654  0.09956469  1
  C  C690  1  0.57717400  0.26709961  0.11421916  1
  C  C691  1  0.60980077  0.14796629  0.23051481  1
  C  C692  1  0.59755625  0.15991400  0.18095670  1
  C  C693  1  0.57827952  0.16258146  0.08872165  1
  C  C694  1  0.59065743  0.06152643  0.10914571  1
  H  H695  1  0.60978314  0.11331316  0.01957680  1
  H  H696  1  0.72789829  0.78137614  0.16215044  1
  C  C697  1  0.60309170  0.05753581  0.15381520  1
  C  C698  1  0.53635901  0.20205928  0.20646374  1
  C  C699  1  0.65600320  0.65467614  0.01932017  1
  C  C700  1  0.71213242  0.79580668  0.07488177  1
  C  C701  1  0.54743790  0.84071512  0.12961009  1
  H  H702  1  0.54154557  0.06826055  0.13493927  1
  H  H703  1  0.66947145  0.87161937  0.05241319  1
  O  O704  1  0.69069222  0.38609326  0.06840588  1
  C  C705  1  0.53686837  0.40445929  0.23075193  1
  C  C706  1  0.64218386  0.52862633  0.08649631  1
  C  C707  1  0.63278848  0.72758849  0.02826993  1
  C  C708  1  0.70949898  0.96896790  0.03041866  1
  H  H709  1  0.61022667  0.97571725  0.16955689  1
  H  H710  1  0.53501776  0.93011184  0.01384001  1
  H  H711  1  0.59005666  0.98301776  0.08719933  1
  H  H712  1  0.58546654  0.74298967  0.15432747  1
  C  C713  1  0.61819508  0.60442221  0.09730141  1
  C  C714  1  0.68651979  0.46922110  0.04034928  1
  C  C715  1  0.51221314  0.22641978  0.17513389  1
  C  C716  1  0.58536212  0.11031486  0.00909047  1
  C  C717  1  0.74080645  0.96886638  0.01948367  1
  H  H718  1  0.54409705  0.11209193  0.20793961  1
  C  C719  1  0.50848490  0.39827630  0.05016897  1
  C  C720  1  0.74885175  0.73687630  0.15405716  1
  H  H721  1  0.58615845  0.58290940  0.02363149  1
  C  C722  1  0.50041728  0.63238602  0.07793032  1
  C  C723  1  0.60557007  0.03624416  0.24985394  1
  H  H724  1  0.62838622  0.80018882  0.00338040  1
  H  H725  1  0.51253692  0.61779227  0.24808594  1
  H  H726  1  0.58570347  0.81122306  0.00360435  1
  C  C727  1  0.55454823  0.45029709  0.00323997  1
  C  C728  1  0.58326089  0.50756612  0.00251299  1
  O  O729  1  0.64707221  0.15043758  0.48970811  1
  C  C730  1  0.58952482  0.74628874  0.34800574  1
  O  O731  1  0.61434827  0.71934961  0.36740047  1
  O  O732  1  0.57597291  0.83640941  0.36061107  1
  C  C733  1  0.58618800  0.55021975  0.31566425  1
  C  C734  1  0.51741974  0.28307614  0.32322637  1
  C  C735  1  0.57349777  0.66142025  0.31805131  1
  H  H736  1  0.60760005  0.53210561  0.33491316  1
  C  C737  1  0.54786610  0.69225819  0.29102818  1
  H  H738  1  0.52041668  0.45177552  0.42127021  1
  C  C739  1  0.57579019  0.46500088  0.28584503  1
  C  C740  1  0.52379305  0.13185193  0.39732690  1
  H  H741  1  0.69704898  0.36964863  0.44923851  1
  O  O742  1  0.59646704  0.26351153  0.40470155  1
  O  O743  1  0.58146091  0.10259261  0.43630329  1
  C  C744  1  0.63957102  0.20703191  0.29306183  1
  H  H745  1  0.65392958  0.27498707  0.30779549  1
  O  O746  1  0.65693568  0.14787152  0.38591964  1
  C  C747  1  0.63425832  0.10158757  0.31433093  1
  C  C748  1  0.64485746  0.07389981  0.36157394  1
  O  O749  1  0.62269538  0.38624032  0.48771402  1
  C  C750  1  0.61706428  0.01152164  0.29339307  1
  O  O751  1  0.63946460  0.96888673  0.37570732  1
  C  C752  1  0.57668894  0.19134648  0.41050327  1
  Zn  Zn753  1  0.59412669  0.93019553  0.41469376  1
  H  H754  1  0.56624561  0.26330477  0.25954724  1
  O  O755  1  0.68155277  0.39134343  0.42938169  1
  Zn  Zn756  1  0.66032491  0.82844298  0.48949059  1
  C  C757  1  0.54776580  0.20630508  0.38595307  1
  C  C758  1  0.72843039  0.05650758  0.37081688  1
  H  H759  1  0.73678092  0.19552277  0.29977413  1
  C  C760  1  0.54785729  0.49193999  0.26460314  1
  Zn  Zn761  1  0.65626850  0.80635979  0.36064911  1
  H  H762  1  0.63452074  0.98515382  0.45231937  1
  H  H763  1  0.56042405  0.34146454  0.33587301  1
  O  O764  1  0.62005902  0.93620845  0.47051458  1
  H  H765  1  0.53807690  0.77889354  0.29287720  1
  O  O766  1  0.67126134  0.70211933  0.30837449  1
  H  H767  1  0.61002947  0.93051497  0.30978273  1
  C  C768  1  0.72652065  0.86277863  0.39842243  1
  O  O769  1  0.69605850  0.53927881  0.32594839  1
  O  O770  1  0.68051132  0.78837577  0.42615442  1
  Zn  Zn771  1  0.70922411  0.51010381  0.39823171  1
  O  O772  1  0.55799861  0.51210397  0.47374633  1
  H  H773  1  0.74427763  0.95352385  0.25584315  1
  H  H774  1  0.71779982  0.14094048  0.36722806  1
  H  H775  1  0.52706191  0.07018633  0.42750264  1
  C  C776  1  0.53468504  0.60704499  0.26493651  1
  H  H777  1  0.52598907  0.66829045  0.45302582  1
  C  C778  1  0.50850422  0.71411944  0.46979772  1
  H  H779  1  0.58872172  0.38440358  0.27698976  1
  H  H780  1  0.51671279  0.34620284  0.29553741  1
  Zn  Zn781  1  0.64153866  0.28073020  0.43419353  1
  C  C782  1  0.72400001  0.69501195  0.29737451  1
  H  H783  1  0.68869705  0.98700899  0.40373266  1
  C  C784  1  0.69546451  0.64071722  0.31113062  1
  C  C785  1  0.71040738  0.76979031  0.42062855  1
  C  C786  1  0.71251169  0.97172130  0.39320607  1
  C  C787  1  0.54367039  0.28104467  0.34881291  1
  H  H788  1  0.70021159  0.85457649  0.27349214  1
  O  O789  1  0.72075939  0.67567652  0.43119589  1
  C  C790  1  0.72182552  0.80955468  0.28103630  1
  O  O791  1  0.56325375  0.81736606  0.46971383  1
  C  C792  1  0.74754271  0.86663979  0.26729027  1
  C  C793  1  0.50735727  0.39197752  0.44555238  1
  C  C794  1  0.51353384  0.81683824  0.49420251  1
  C  C795  1  0.51834361  0.37933342  0.49164081  1
  H  H796  1  0.60238928  0.41657269  0.47929956  1
  C  C797  1  0.54433731  0.87424852  0.49263298  1
  O  O798  1  0.62667632  0.68471207  0.49029751  1
  O  O799  1  0.67953489  0.00612428  0.49722930  1
  Zn  Zn800  1  0.58276359  0.65836284  0.49892163  1
  C  C801  1  0.62764201  0.23266437  0.25057704  1
  C  C802  1  0.58812100  0.79887490  0.64616723  1
  C  C803  1  0.60757688  0.70241667  0.63898400  1
  H  H804  1  0.57037787  0.81653943  0.62104684  1
  O  O805  1  0.62076415  0.54814462  0.58663722  1
  C  C806  1  0.60459978  0.63496657  0.59588870  1
  O  O807  1  0.58388419  0.67333045  0.57160711  1
  Zn  Zn808  1  0.60504205  0.38912806  0.55263645  1
  O  O809  1  0.59966662  0.26314596  0.60406195  1
  O  O810  1  0.60404449  0.08078417  0.58166210  1
  C  C811  1  0.58980226  0.16286991  0.60053419  1
  C  C812  1  0.73233122  0.43513924  0.67536932  1
  C  C813  1  0.54561090  0.02696035  0.60886352  1
  O  O814  1  0.68163847  0.76029559  0.55188705  1
  C  C815  1  0.71152358  0.01821160  0.68137691  1
  O  O816  1  0.55798076  0.42614782  0.54073133  1
  H  H817  1  0.54462350  0.31749161  0.62030803  1
  H  H818  1  0.50733492  0.91317829  0.61623290  1
  H  H819  1  0.70672611  0.43175337  0.68395603  1
  C  C820  1  0.71283050  0.11301683  0.56463677  1
  C  C821  1  0.59277537  0.86931720  0.68255093  1
  H  H822  1  0.68187353  0.67945305  0.60930831  1
  H  H823  1  0.74573157  0.51364781  0.73968566  1
  C  C824  1  0.74263671  0.36821350  0.63629787  1
  H  H825  1  0.60348361  0.07088405  0.70765811  1
  C  C826  1  0.67772590  0.28180591  0.55463808  1
  C  C827  1  0.67088313  0.10211515  0.50793614  1
  H  H828  1  0.68935736  0.43489360  0.59137404  1
  C  C829  1  0.53700050  0.22515914  0.62378392  1
  C  C830  1  0.68751919  0.17053084  0.54264025  1
  H  H831  1  0.72146355  0.19897842  0.73151575  1
  C  C832  1  0.67945701  0.28601323  0.72508598  1
  C  C833  1  0.69570080  0.34465826  0.58509312  1
  C  C834  1  0.55736041  0.13926398  0.61416253  1
  C  C835  1  0.73105071  0.18532023  0.59033013  1
  C  C836  1  0.63064281  0.67473215  0.67052853  1
  H  H837  1  0.64428528  0.59494695  0.66574040  1
  H  H838  1  0.52046453  0.29926726  0.55727792  1
  C  C839  1  0.50763828  0.30331000  0.52504927  1
  H  H840  1  0.65675964  0.31457231  0.53903879  1
  H  H841  1  0.62499136  0.25503920  0.67637566  1
  H  H842  1  0.65649241  0.73717626  0.72851767  1
  H  H843  1  0.55854309  0.95781503  0.59344188  1
  C  C844  1  0.51596150  0.00243383  0.61986129  1
  C  C845  1  0.62574167  0.32937971  0.69949348  1
  Zn  Zn846  1  0.59722388  0.06404463  0.50822488  1
  H  H847  1  0.71947000  0.02155063  0.55545047  1
  H  H848  1  0.57752786  0.93908644  0.69170910  1
  Zn  Zn849  1  0.65443855  0.90714388  0.61033228  1
  C  C850  1  0.59845848  0.38688057  0.70610071  1
  C  C851  1  0.69844654  0.84731992  0.62893579  1
  C  C852  1  0.68231502  0.76947339  0.59463072  1
  C  C853  1  0.61665150  0.84238794  0.71421125  1
  Zn  Zn854  1  0.67664580  0.14434072  0.67888154  1
  C  C855  1  0.69101232  0.96302603  0.64935597  1
  H  H856  1  0.72308290  0.82170029  0.63403359  1
  H  H857  1  0.57757625  0.36663235  0.68752379  1
  C  C858  1  0.63637038  0.74855382  0.70739746  1
  C  C859  1  0.72357298  0.30200964  0.60227871  1
  C  C860  1  0.59887097  0.48270857  0.73838789  1
  O  O861  1  0.73345564  0.03003948  0.70524086  1
  H  H862  1  0.63272595  0.66417845  0.51941141  1
  H  H863  1  0.51738553  0.29650404  0.72905547  1
  C  C864  1  0.65286259  0.35587508  0.72695404  1
  O  O865  1  0.55108310  0.96999332  0.50881087  1
  C  C866  1  0.50652767  0.20300125  0.63647711  1
  H  H867  1  0.54844038  0.36312996  0.74898233  1
  C  C868  1  0.70854672  0.27216451  0.74349224  1
  C  C869  1  0.61399895  0.04884601  0.74106124  1
  C  C870  1  0.54552740  0.44768943  0.50338487  1
  H  H871  1  0.63709272  0.09062051  0.95799655  1
  C  C872  1  0.52671742  0.14217842  0.85893612  1
  C  C873  1  0.54583305  0.22931176  0.83767401  1
  C  C874  1  0.50177470  0.18172052  0.88752321  1
  C  C875  1  0.72737217  0.51842459  0.83030795  1
  C  C876  1  0.53708000  0.79178816  0.81383662  1
  C  C877  1  0.53161132  0.01910016  0.84550021  1
  C  C878  1  0.73470609  0.18671365  0.90771193  1
  C  C879  1  0.53982822  0.67837158  0.79007328  1
  H  H880  1  0.66392408  0.37895388  0.95998717  1
  C  C881  1  0.54527993  0.34285206  0.85076735  1
  C  C882  1  0.62195057  0.93288366  0.75257936  1
  C  C883  1  0.72045469  0.34379197  0.77842276  1
  C  C884  1  0.52319278  0.37661137  0.88611794  1
  C  C885  1  0.61684584  0.23534431  0.88501461  1
  C  C886  1  0.71203896  0.27623655  0.91113960  1
  H  H887  1  0.72567782  0.10028166  0.89782042  1
  O  O888  1  0.70937175  0.42674567  0.80108168  1
  H  H889  1  0.63977085  0.80502407  0.80249486  1
  C  C890  1  0.63205203  0.89402881  0.79665719  1
  H  H891  1  0.74522232  0.34510207  0.78842009  1
  C  C892  1  0.56858799  0.53180119  0.75251039  1
  C  C893  1  0.51701578  0.48170571  0.78060545  1
  H  H894  1  0.70647922  0.45515294  0.92284377  1
  C  C895  1  0.57602342  0.05444501  0.96841503  1
  H  H896  1  0.56087420  0.40221288  0.83559049  1
  C  C897  1  0.58681111  0.87372928  0.92009516  1
  H  H898  1  0.67434023  0.92909786  0.95017270  1
  H  H899  1  0.67340948  0.49365430  0.77025150  1
  H  H900  1  0.70417965  0.83381827  0.92605969  1
  H  H901  1  0.60273611  0.70348885  0.89997993  1
  C  C902  1  0.52367932  0.49502187  0.89975837  1
  H  H903  1  0.74000612  0.70829233  0.88070022  1
  C  C904  1  0.56643638  0.65115473  0.76588442  1
  C  C905  1  0.60127990  0.36159193  0.95032566  1
  H  H906  1  0.57188466  0.21426429  0.93342274  1
  H  H907  1  0.64099954  0.95220341  0.86492715  1
  H  H908  1  0.63119563  0.59043205  0.88540375  1
  C  C909  1  0.62594427  0.09611936  0.82020528  1
  H  H910  1  0.61298396  0.22081443  0.76647249  1
  O  O911  1  0.70073182  0.16143018  0.99734481  1
  C  C912  1  0.63402423  0.97625640  0.83139908  1
  C  C913  1  0.67586095  0.55533567  0.85853187  1
  C  C914  1  0.52420670  0.10453282  0.98879574  1
  C  C915  1  0.62963391  0.00235779  0.94596144  1
  C  C916  1  0.65300589  0.46305882  0.75388594  1
  C  C917  1  0.66401461  0.72420591  0.90509206  1
  C  C918  1  0.69683211  0.75488530  0.90832895  1
  C  C919  1  0.71594641  0.68874684  0.88439565  1
  C  C920  1  0.70655422  0.59112599  0.85667340  1
  H  H921  1  0.62699674  0.59428724  0.78549279  1
  C  C922  1  0.60922275  0.79264270  0.90979754  1
  H  H923  1  0.56267620  0.19770647  0.81220177  1
  O  O924  1  0.52061119  0.58520975  0.91574956  1
  H  H925  1  0.68817713  0.13855600  0.84697541  1
  C  C926  1  0.50674023  0.93915041  0.84980329  1
  C  C927  1  0.65084878  0.91817906  0.93872630  1
  C  C928  1  0.51513410  0.59753369  0.79502622  1
  C  C929  1  0.54495403  0.06069312  0.95589135  1
  C  C930  1  0.67830933  0.25868806  0.90199386  1
  C  C931  1  0.67055446  0.18487918  0.86551933  1
  C  C932  1  0.61594294  0.13010393  0.77678871  1
  C  C933  1  0.65426370  0.61734520  0.88307364  1
  C  C934  1  0.72244475  0.38878827  0.92235687  1
  H  H935  1  0.66897511  0.47735051  0.83986702  1
  C  C936  1  0.62645299  0.52135405  0.76075250  1
  C  C937  1  0.65825019  0.32248263  0.92969014  1
  H  H938  1  0.53768266  0.03275477  0.92091508  1
  C  C939  1  0.59795291  0.98181841  0.93935414  1
  H  H940  1  0.59178859  0.21723051  0.88119266  1
  C  C941  1  0.57275011  0.29750439  0.95253634  1
  C  C942  1  0.62649530  0.30734202  0.92218954  1
  C  C943  1  0.63838051  0.17845029  0.85826095  1
  C  C944  1  0.64103462  0.80856270  0.92032122  1
  H  H945  1  0.57722888  0.04864551  0.81858433  1
  H  H946  1  0.56184972  0.86037125  0.91744021  1
  C  C947  1  0.50847181  0.82898830  0.83352311  1
  C  C948  1  0.54920997  0.34066023  0.97909740  1
  C  C949  1  0.56183368  0.87066807  0.80694503  1
  H  H950  1  0.52703697  0.30216994  0.97985635  1
  H  H951  1  0.58190562  0.84643169  0.78748755  1
  C  C952  1  0.55903820  0.98563957  0.82212287  1
  C  C953  1  0.60679897  0.46587441  0.97459444  1
  H  H954  1  0.63026126  0.50649089  0.97528376  1
  C  C955  1  0.54483485  0.45317372  0.75941314  1
  H  H956  1  0.67105039  0.66681067  0.98842387  1
  H  H957  1  0.58348142  0.70947397  0.75267332  1
  C  C958  1  0.85695440  0.99282013  0.11658630  1
  C  C959  1  0.80492332  0.12761309  0.09135856  1
  C  C960  1  0.87332056  0.54343448  0.10179901  1
  C  C961  1  0.88339024  0.59749265  0.14441723  1
  C  C962  1  0.85915467  0.62271267  0.06637702  1
  H  H963  1  0.84892690  0.91176473  0.04081468  1
  C  C964  1  0.80235333  0.03072184  0.12088802  1
  C  C965  1  0.75925839  0.89188059  0.04381641  1
  C  C966  1  0.86194020  0.74831702  0.06866443  1
  H  H967  1  0.82300629  0.88945568  0.15591034  1
  C  C968  1  0.87236144  0.42124117  0.09820427  1
  H  H969  1  0.86483886  0.37859669  0.06527484  1
  C  C970  1  0.79557634  0.64632098  0.18321186  1
  C  C971  1  0.84604446  0.82124168  0.03770568  1
  O  O972  1  0.77683085  0.26047700  0.04537141  1
  C  C973  1  0.91247229  0.91870332  0.11580194  1
  C  C974  1  0.94431864  0.38160924  0.10436174  1
  H  H975  1  0.92049044  0.09276130  0.13003517  1
  C  C976  1  0.77640463  0.18874054  0.07640071  1
  C  C977  1  0.98953962  0.85841467  0.21037242  1
  C  C978  1  0.82728198  0.96787523  0.13514065  1
  H  H979  1  0.85082617  0.73146694  0.22568023  1
  C  C980  1  0.87657555  0.34602200  0.13668393  1
  C  C981  1  0.83402336  0.14819458  0.07041023  1
  C  C982  1  0.85925420  0.07863777  0.08153221  1
  H  H983  1  0.98444835  0.09011443  0.09626288  1
  H  H984  1  0.94317161  0.15943094  0.20945707  1
  H  H985  1  0.87515661  0.78491200  0.09667708  1
  H  H986  1  0.83716766  0.22107357  0.04517643  1
  H  H987  1  0.98596628  0.79158763  0.18237062  1
  C  C988  1  0.88769771  0.52194508  0.18001045  1
  H  H989  1  0.88511861  0.69209507  0.14646019  1
  C  C990  1  0.76188418  0.73797079  0.10909614  1
  H  H991  1  0.87506233  0.24939596  0.13157858  1
  C  C992  1  0.88534586  0.39845552  0.17888570  1
  C  C993  1  0.96455324  0.92818308  0.22338696  1
  H  H994  1  0.86195120  0.97611292  0.20367436  1
  H  H995  1  0.86543698  0.17833256  0.18540765  1
  H  H996  1  0.94025973  0.44027463  0.07677858  1
  H  H997  1  0.96368990  0.49981400  0.15291550  1
  C  C998  1  0.88376244  0.93626360  0.13748673  1
  C  C999  1  0.93546315  0.20898162  0.05291038  1
  C  C1000  1  0.88206488  0.94078725  0.18735524  1
  C  C1001  1  0.79285125  0.70470420  0.10207271  1
  C  C1002  1  0.80281423  0.48944326  0.23826999  1
  C  C1003  1  0.93656578  0.25807055  0.10088769  1
  H  H1004  1  0.78180740  0.46339014  0.22127273  1
  H  H1005  1  0.88221564  0.09324370  0.06563426  1
  H  H1006  1  0.95883729  0.85695676  0.12676272  1
  H  H1007  1  0.91512393  0.92600721  0.07713482  1
  C  C1008  1  0.76526751  0.68634746  0.18854110  1
  C  C1009  1  0.93676268  0.91306182  0.19211646  1
  C  C1010  1  0.93798474  0.89944734  0.14289421  1
  C  C1011  1  0.93298587  0.10173462  0.03437637  1
  C  C1012  1  0.93096273  0.17790775  0.13715094  1
  C  C1013  1  0.95493417  0.41598309  0.14721076  1
  O  O1014  1  0.90890243  0.40684534  0.00716379  1
  H  H1015  1  0.77846425  0.00459964  0.13080345  1
  H  H1016  1  0.83378906  0.63530303  0.13379917  1
  H  H1017  1  0.82083422  0.15875925  0.22832685  1
  C  C1018  1  0.99893765  0.62727782  0.10468448  1
  H  H1019  1  0.80378993  0.70422345  0.06773606  1
  C  C1020  1  0.90789473  0.92751924  0.21381309  1
  C  C1021  1  0.95580636  0.32640627  0.18404741  1
  O  O1022  1  0.98706967  0.68463549  0.13308235  1
  H  H1023  1  0.83902178  0.48456051  0.02414024  1
  H  H1024  1  0.78469925  0.89891187  0.03928789  1
  C  C1025  1  0.80952177  0.66200459  0.13956424  1
  C  C1026  1  0.84019204  0.57801185  0.02931508  1
  C  C1027  1  0.94151044  0.21884935  0.17952573  1
  O  O1028  1  0.75024053  0.16588415  0.09203588  1
  C  C1029  1  0.97798664  0.34571723  0.22507163  1
  H  H1030  1  0.75560709  0.68491463  0.22212031  1
  C  C1031  1  0.88781118  0.32257644  0.22211027  1
  Zn  Zn1032  1  0.98927130  0.65388917  0.03770826  1
  C  C1033  1  0.81578158  0.59270378  0.22027837  1
  H  H1034  1  0.99760200  0.18346451  0.20182070  1
  C  C1035  1  0.82406610  0.07475186  0.24472433  1
  C  C1036  1  0.87475760  0.21159922  0.21878053  1
  H  H1037  1  0.89037346  0.56464198  0.21408110  1
  C  C1038  1  0.84185683  0.64541848  0.23884931  1
  H  H1039  1  0.77930725  0.01223752  0.22605425  1
  C  C1040  1  0.80107156  0.98761340  0.24137602  1
  C  C1041  1  0.99925689  0.25381755  0.22774714  1
  H  H1042  1  0.99968310  0.45614375  0.02408005  1
  H  H1043  1  0.91044387  0.71604078  0.24911749  1
  H  H1044  1  0.90593364  0.94903946  0.24976890  1
  H  H1045  1  0.96247415  0.50539865  0.24698486  1
  C  C1046  1  0.82332932  0.65104168  0.00085422  1
  C  C1047  1  0.82624675  0.77394842  0.00352632  1
  H  H1048  1  0.88218351  0.12593937  0.33328919  1
  C  C1049  1  0.80361611  0.88336614  0.26755668  1
  C  C1050  1  0.85604677  0.59671489  0.27797669  1
  H  H1051  1  0.85509781  0.61432869  0.36818856  1
  H  H1052  1  0.87867482  0.91802562  0.30517670  1
  H  H1053  1  0.96014986  0.21960518  0.29869083  1
  H  H1054  1  0.93923505  0.84820990  0.29670288  1
  O  O1055  1  0.79587707  0.57833464  0.40045114  1
  C  C1056  1  0.85612375  0.92922611  0.28989944  1
  C  C1057  1  0.87479913  0.66222215  0.35445636  1
  C  C1058  1  0.83158012  0.84986137  0.29060312  1
  C  C1059  1  0.84608793  0.48661215  0.29154035  1
  C  C1060  1  0.90278290  0.35623907  0.26422192  1
  H  H1061  1  0.91356240  0.54373109  0.42739689  1
  C  C1062  1  0.88542459  0.18069884  0.30241290  1
  C  C1063  1  0.79953357  0.37999418  0.41594971  1
  C  C1064  1  0.89491732  0.73033460  0.38151899  1
  H  H1065  1  0.89286156  0.73646894  0.41949575  1
  C  C1066  1  0.88598701  0.95755140  0.48246221  1
  C  C1067  1  0.87273378  0.14166899  0.26106500  1
  H  H1068  1  0.94984441  0.02176767  0.35895500  1
  H  H1069  1  0.91362899  0.44088234  0.26763945  1
  C  C1070  1  0.82792922  0.18567596  0.45127634  1
  H  H1071  1  0.83404637  0.76286624  0.30651857  1
  C  C1072  1  0.83060874  0.38701706  0.42307463  1
  C  C1073  1  0.99553126  0.66901946  0.31204268  1
  C  C1074  1  0.77634561  0.81091548  0.27467624  1
  C  C1075  1  0.84481050  0.28766469  0.43766981  1
  C  C1076  1  0.92055378  0.36522800  0.44707197  1
  C  C1077  1  0.77513642  0.31251170  0.29035639  1
  H  H1078  1  0.97577974  0.67645187  0.28766568  1
  C  C1079  1  0.77673931  0.12977969  0.33575122  1
  C  C1080  1  0.85179953  0.03902464  0.26786064  1
  C  C1081  1  0.96985627  0.96701508  0.46915236  1
  C  C1082  1  0.97648084  0.21141838  0.32666514  1
  H  H1083  1  0.99742436  0.85086576  0.33192781  1
  H  H1084  1  0.78485674  0.10803467  0.45022738  1
  C  C1085  1  0.80898364  0.14998329  0.34528980  1
  C  C1086  1  0.77411962  0.92524386  0.36419230  1
  C  C1087  1  0.92270396  0.79272361  0.31407934  1
  H  H1088  1  0.75699594  0.28463252  0.41580509  1
  H  H1089  1  0.82307675  0.08340698  0.36590812  1
  C  C1090  1  0.90003282  0.29194905  0.30589755  1
  C  C1091  1  0.91854004  0.80051800  0.36306382  1
  H  H1092  1  0.91293289  0.13474855  0.37521609  1
  H  H1093  1  0.84735881  0.25850420  0.32992816  1
  C  C1094  1  0.75837291  0.03234955  0.35583146  1
  H  H1095  1  0.85871071  0.43813118  0.32008581  1
  H  H1096  1  0.79684693  0.91113615  0.35098874  1
  H  H1097  1  0.84208432  0.47154515  0.41510233  1
  C  C1098  1  0.97944101  0.29392697  0.36176977  1
  H  H1099  1  0.80002603  0.96648375  0.45373647  1
  C  C1100  1  0.91529480  0.22093090  0.38636525  1
  C  C1101  1  0.95269090  0.97113713  0.39010458  1
  H  H1102  1  0.97765234  0.11502889  0.42125402  1
  C  C1103  1  0.88066938  0.66177609  0.30714854  1
  H  H1104  1  0.93004688  0.17921833  0.45622363  1
  C  C1105  1  0.96269303  0.84739357  0.47501358  1
  C  C1106  1  0.90690012  0.31332466  0.35601009  1
  C  C1107  1  0.94692017  0.79969836  0.43891998  1
  C  C1108  1  0.93929188  0.86195552  0.39678782  1
  C  C1109  1  0.96757549  0.02542157  0.42694402  1
  C  C1110  1  0.90570136  0.43080267  0.36962872  1
  C  C1111  1  0.82302536  0.24325521  0.32431439  1
  H  H1112  1  0.94002164  0.70834911  0.44232688  1
  C  C1113  1  0.91326032  0.45447929  0.41519696  1
  C  C1114  1  0.92326260  0.24748729  0.43224882  1
  C  C1115  1  0.75204406  0.63647742  0.30333144  1
  C  C1116  1  0.90457375  0.72390976  0.28484617  1
  C  C1117  1  0.96621362  0.00342515  0.26266992  1
  C  C1118  1  0.76165292  0.21107493  0.30825895  1
  C  C1119  1  0.81927681  0.43770859  0.27493087  1
  H  H1120  1  0.90169985  0.50684847  0.34649962  1
  H  H1121  1  0.75603756  0.55303136  0.31773607  1
  C  C1122  1  0.80668374  0.32866238  0.29751493  1
  H  H1123  1  0.88944764  0.13224938  0.46365937  1
  H  H1124  1  0.96460434  0.36760630  0.36132577  1
  C  C1125  1  0.78202367  0.48786573  0.40186460  1
  C  C1126  1  0.82436757  0.96630846  0.46499444  1
  C  C1127  1  0.84111767  0.07285487  0.46193714  1
  H  H1128  1  0.86939016  0.28660740  0.43888890  1
  H  H1129  1  0.94513493  0.04211649  0.27583305  1
  H  H1130  1  0.80090740  0.66189204  0.29535210  1
  C  C1131  1  0.77806187  0.69586864  0.29071590  1
  O  O1132  1  0.75609113  0.47339727  0.38465492  1
  C  C1133  1  0.98103829  0.44440536  0.25346945  1
  H  H1134  1  0.99033306  0.50137083  0.39341333  1
  H  H1135  1  0.97680201  0.34820846  0.47979908  1
  C  C1136  1  0.79552262  0.18943268  0.44272628  1
  C  C1137  1  0.87333305  0.06129469  0.46860355  1
  C  C1138  1  0.99413957  0.11447629  0.32363979  1
  C  C1139  1  0.78114153  0.28404160  0.42402581  1
  H  H1140  1  0.76504959  0.74840974  0.39091069  1
  C  C1141  1  0.75745974  0.83922809  0.38374350  1
  H  H1142  1  0.81797696  0.78506470  0.48904469  1
  C  C1143  1  0.92783992  0.39491528  0.49545410  1
  H  H1144  1  0.76206844  0.37718611  0.26937666  1
  C  C1145  1  0.83385374  0.86011243  0.48184281  1
  C  C1146  1  0.99449094  0.02505948  0.28447432  1
  H  H1147  1  0.89121992  0.52203080  0.49981501  1
  H  H1148  1  0.91102524  0.93638679  0.48013256  1
  C  C1149  1  0.86512058  0.86595021  0.49545787  1
  C  C1150  1  0.75228392  0.47686188  0.70689265  1
  H  H1151  1  0.82115032  0.28628262  0.52843860  1
  H  H1152  1  0.84768904  0.62264621  0.51738436  1
  C  C1153  1  0.91790033  0.83001903  0.64445809  1
  C  C1154  1  0.82939280  0.14638345  0.60578786  1
  C  C1155  1  0.91215038  0.84945441  0.69264846  1
  C  C1156  1  0.79288225  0.03544604  0.65003819  1
  O  O1157  1  0.79403390  0.74830102  0.60239700  1
  H  H1158  1  0.96977207  0.79907810  0.50707999  1
  O  O1159  1  0.98770417  0.96825626  0.54916594  1
  C  C1160  1  0.81077251  0.13306103  0.64522075  1
  H  H1161  1  0.75308797  0.15370378  0.60404831  1
  H  H1162  1  0.78450447  0.32172719  0.59401590  1
  C  C1163  1  0.91069531  0.48447728  0.51917992  1
  C  C1164  1  0.93366128  0.90687982  0.72072075  1
  C  C1165  1  0.89076012  0.83594114  0.56962311  1
  H  H1166  1  0.77374957  0.02664301  0.67414795  1
  C  C1167  1  0.96103968  0.93491098  0.69450613  1
  C  C1168  1  0.84278154  0.26411711  0.59563483  1
  C  C1169  1  0.79532997  0.41155176  0.65607202  1
  C  C1170  1  0.82277575  0.94617777  0.58307728  1
  C  C1171  1  0.80053155  0.94621799  0.61906103  1
  O  O1172  1  0.96841654  0.34625279  0.64959509  1
  Zn  Zn1173  1  0.93532104  0.38906563  0.56707466  1
  C  C1174  1  0.97634674  0.45895134  0.54238788  1
  C  C1175  1  0.83963119  0.44680814  0.55628086  1
  C  C1176  1  0.92813177  0.57040009  0.55270392  1
  C  C1177  1  0.81182709  0.63150671  0.72601788  1
  O  O1178  1  0.98480964  0.72741984  0.56169055  1
  C  C1179  1  0.92349759  0.19423813  0.66849937  1
  H  H1180  1  0.98815710  0.93408050  0.62783395  1
  C  C1181  1  0.77435561  0.36275287  0.62463353  1
  H  H1182  1  0.88677095  0.62931871  0.65477971  1
  H  H1183  1  0.82888830  0.86940230  0.56495793  1
  H  H1184  1  0.92005251  0.65992762  0.55245523  1
  H  H1185  1  0.94775592  0.83653093  0.58353355  1
  C  C1186  1  0.86024640  0.30899199  0.63485055  1
  C  C1187  1  0.98376276  0.01665139  0.71447384  1
  C  C1188  1  0.90117907  0.11266530  0.67700113  1
  O  O1189  1  0.95747440  0.46429173  0.70319811  1
  H  H1190  1  0.83186940  0.49843678  0.52676060  1
  C  C1191  1  0.90879331  0.30964343  0.73720329  1
  H  H1192  1  0.81987626  0.41951886  0.64780658  1
  H  H1193  1  0.84815373  0.07596183  0.54425605  1
  H  H1194  1  0.83166482  0.79159310  0.67270283  1
  O  O1195  1  0.99342403  0.12143810  0.50625970  1
  C  C1196  1  0.87099835  0.42215689  0.62839339  1
  C  C1197  1  0.84066404  0.84914533  0.70006822  1
  H  H1198  1  0.89971613  0.92198669  0.56617644  1
  O  O1199  1  0.98209883  0.64274280  0.62893826  1
  C  C1200  1  0.85893577  0.48898677  0.59125727  1
  H  H1201  1  0.88643421  0.45721651  0.65359387  1
  C  C1202  1  0.78388444  0.45839552  0.69707279  1
  C  C1203  1  0.83439912  0.05422275  0.57377074  1
  H  H1204  1  0.80458558  0.21245416  0.66491946  1
  H  H1205  1  0.89944808  0.03468310  0.65628400  1
  H  H1206  1  0.89128070  0.82733310  0.70782228  1
  C  C1207  1  0.88255689  0.66753618  0.62175635  1
  C  C1208  1  0.87056744  0.78839411  0.53671031  1
  H  H1209  1  0.99809355  0.79036465  0.71609291  1
  C  C1210  1  0.96699943  0.91015998  0.64688321  1
  H  H1211  1  0.86794792  0.25218797  0.66243262  1
  C  C1212  1  0.86219665  0.03213532  0.73078901  1
  C  C1213  1  0.86757780  0.61311510  0.58492067  1
  C  C1214  1  0.95959602  0.55132914  0.56539958  1
  C  C1215  1  0.94433971  0.85830221  0.61936321  1
  C  C1216  1  0.97655031  0.64346599  0.58738324  1
  C  C1217  1  0.89526051  0.77269655  0.60968056  1
  C  C1218  1  0.83249676  0.32907867  0.55664000  1
  C  C1219  1  0.88371150  0.12843504  0.71747205  1
  C  C1220  1  0.92643489  0.29201479  0.69588217  1
  C  C1221  1  0.95158126  0.37089267  0.68110558  1
  C  C1222  1  0.86030878  0.67154626  0.54370751  1
  C  C1223  1  0.98356989  0.02477813  0.51074359  1
  H  H1224  1  0.85092294  0.98783076  0.65585955  1
  C  C1225  1  0.85111873  0.95965799  0.69305722  1
  C  C1226  1  0.78749966  0.82930437  0.62646801  1
  H  H1227  1  0.93843229  0.17919358  0.63896435  1
  O  O1228  1  0.76455915  0.80438792  0.66171321  1
  H  H1229  1  0.79802443  0.68707861  0.70486676  1
  C  C1230  1  0.96017295  0.37621860  0.50657869  1
  H  H1231  1  0.76209791  0.88188430  0.67349454  1
  C  C1232  1  0.80683512  0.51250960  0.73168505  1
  H  H1233  1  0.94742450  0.13096145  0.73396356  1
  C  C1234  1  0.84452822  0.80420711  0.74650629  1
  C  C1235  1  0.99022466  0.21782118  0.73021125  1
  H  H1236  1  0.98039821  0.30108650  0.73999338  1
  C  C1237  1  0.88820938  0.22451009  0.74985268  1
  C  C1238  1  0.97128921  0.12384757  0.73152818  1
  C  C1239  1  0.80716789  0.35885673  0.93472581  1
  C  C1240  1  0.85168064  0.48688078  0.92909381  1
  H  H1241  1  0.96490201  0.15728754  0.89647304  1
  O  O1242  1  0.93262614  0.94042301  0.97296337  1
  C  C1243  1  0.77524049  0.32312483  0.92452072  1
  C  C1244  1  0.86436245  0.41304239  0.96196635  1
  H  H1245  1  0.93395720  0.31921366  0.83973213  1
  H  H1246  1  0.87018920  0.02770954  0.91907182  1
  C  C1247  1  0.90862005  0.31769727  0.84303640  1
  H  H1248  1  0.87068819  0.03094290  0.80666669  1
  H  H1249  1  0.81724257  0.32017647  0.84099418  1
  C  C1250  1  0.89152929  0.21615040  0.85812617  1
  C  C1251  1  0.82360577  0.28394113  0.96632182  1
  H  H1252  1  0.94223000  0.14319255  0.82446061  1
  H  H1253  1  0.95963949  0.92858507  0.81727412  1
  H  H1254  1  0.86874157  0.65957323  0.80506592  1
  H  H1255  1  0.85279369  0.83281742  0.81911343  1
  H  H1256  1  0.81073538  0.50282330  0.88929755  1
  C  C1257  1  0.89299116  0.41253857  0.82839353  1
  C  C1258  1  0.82271965  0.45692071  0.91531521  1
  H  H1259  1  0.95703796  0.74633978  0.97474048  1
  C  C1260  1  0.84253963  0.31691214  0.84351509  1
  C  C1261  1  0.85923035  0.22294800  0.86078831  1
  H  H1262  1  0.90625854  0.49185551  0.82148930  1
  O  O1263  1  0.91933996  0.66557251  0.86953973  1
  C  C1264  1  0.93307795  0.75356914  0.85061918  1
  C  C1265  1  0.90235667  0.09495708  0.86558716  1
  C  C1266  1  0.93063316  0.07068995  0.84165032  1
  C  C1267  1  0.99106577  0.30217399  0.87503719  1
  C  C1268  1  0.94202150  0.96013659  0.83874613  1
  C  C1269  1  0.97135170  0.38723375  0.89922317  1
  O  O1270  1  0.94916014  0.34658105  0.92060072  1
  C  C1271  1  0.89837845  0.89488656  0.88962098  1
  C  C1272  1  0.88844899  0.00859528  0.89458272  1
  C  C1273  1  0.76490897  0.20602592  0.91441468  1
  H  H1274  1  0.88906677  0.82428664  0.90871298  1
  O  O1275  1  0.97729120  0.49415063  0.90085930  1
  O  O1276  1  0.90185336  0.56322952  0.96597362  1
  C  C1277  1  0.84431746  0.49323419  0.79018848  1
  Zn  Zn1278  1  0.94161296  0.60031280  0.93214958  1
  O  O1279  1  0.95711975  0.73734876  0.82984346  1
  C  C1280  1  0.85201316  0.87346606  0.78443081  1
  C  C1281  1  0.92388358  0.87208646  0.86111602  1
  C  C1282  1  0.85320431  0.30544905  0.97836827  1
  H  H1283  1  0.78166773  0.13436289  0.91121338  1
  O  O1284  1  0.96831561  0.67794119  0.97809408  1
  C  C1285  1  0.85247929  0.61346930  0.78462826  1
  H  H1286  1  0.84601255  0.15409034  0.87443989  1
  C  C1287  1  0.85967009  0.41290678  0.82403886  1
  H  H1288  1  0.86399086  0.55982391  0.91511312  1
  C  C1289  1  0.80900636  0.85691631  0.97323836  1
  H  H1290  1  0.83401468  0.97303965  0.99870560  1
  Zn  Zn1291  1  0.93823255  0.22563387  0.98369154  1
  O  O1292  1  0.78809493  0.82832782  0.95105933  1
  H  H1293  1  0.87421070  0.22811139  0.78202387  1
  H  H1294  1  0.76155024  0.50446475  0.94038018  1
  C  C1295  1  0.75390432  0.41178732  0.93051304  1
  C  C1296  1  0.82246170  0.43500392  0.76223529  1
  C  C1297  1  0.86103148  0.99011234  0.77662714  1
  H  H1298  1  0.92965604  0.92967986  0.75820277  1
  H  H1299  1  0.75027271  0.03929182  0.99736851  1
  H  H1300  1  0.80835247  0.61632645  0.97547134  1
  O  O1301  1  0.75375370  0.52534448  0.82786171  1
  H  H1302  1  0.81812892  0.34323412  0.76674393  1
  H  H1303  1  0.99350696  0.72761470  0.79670222  1
  C  C1304  1  0.98733656  0.18139073  0.88042456  1
  C  C1305  1  0.89425585  0.46157170  0.97762087  1
  H  H1306  1  0.81051169  0.20721409  0.98004216  1
  O  O1307  1  0.81512594  0.98242646  0.97762889  1
  C  C1308  1  0.93481984  0.02806722  0.99412312  1
  H  H1309  1  0.86599253  0.24203031  0.99976560  1
  H  H1310  1  0.91390929  0.38556303  0.76060751  1
  C  C1311  1  0.83724896  0.67802663  0.75115050  1
