# generated using pymatgen
data_Zn6H72C132N36O25
_symmetry_space_group_name_H-M   'P 1'
_cell_length_a   16.17162241
_cell_length_b   33.11490120
_cell_length_c   26.33403589
_cell_angle_alpha   90.00000000
_cell_angle_beta   90.00000000
_cell_angle_gamma   90.00000000
_symmetry_Int_Tables_number   1
_chemical_formula_structural   Zn6H72C132N36O25
_chemical_formula_sum   'Zn24 H288 C528 N144 O100'
_cell_volume   14102.44710084
_cell_formula_units_Z   4
loop_
 _symmetry_equiv_pos_site_id
 _symmetry_equiv_pos_as_xyz
  1  'x, y, z'
loop_
 _atom_site_type_symbol
 _atom_site_label
 _atom_site_symmetry_multiplicity
 _atom_site_fract_x
 _atom_site_fract_y
 _atom_site_fract_z
 _atom_site_occupancy
  C  C0  1  0.20841559  0.07319593  0.03799860  1
  H  H1  1  0.35773322  0.04682715  0.02801033  1
  C  C2  1  0.12465389  0.07348668  0.05331893  1
  C  C3  1  0.39134568  0.07151346  0.04323137  1
  H  H4  1  0.42069346  0.10542158  0.13247648  1
  C  C5  1  0.26711324  0.10115907  0.06077642  1
  N  N6  1  0.34900704  0.10138771  0.06067252  1
  C  C7  1  0.21792727  0.21653847  0.07463428  1
  C  C8  1  0.15990274  0.12601207  0.11517473  1
  C  C9  1  0.24047736  0.12845097  0.09933887  1
  C  C10  1  0.10503314  0.09931425  0.09211690  1
  H  H11  1  0.13866200  0.14796589  0.14559899  1
  H  H12  1  0.28701820  0.14858897  0.11410734  1
  N  N13  1  0.37579156  0.11660553  0.19546752  1
  C  C14  1  0.14155159  0.17324202  0.01180459  1
  H  H15  1  0.27845458  0.06501330  0.15268970  1
  C  C16  1  0.40934900  0.14630043  0.21852747  1
  C  C17  1  0.26916427  0.06569630  0.19303226  1
  H  H18  1  0.39147632  0.23557639  0.05918654  1
  C  C19  1  0.21882111  0.03940130  0.21595216  1
  C  C20  1  0.13645842  0.20042961  0.05282320  1
  C  C21  1  0.31886655  0.09354939  0.22234851  1
  O  O22  1  0.28527433  0.21327673  0.05282590  1
  C  C23  1  0.47250268  0.16878356  0.19305401  1
  C  C24  1  0.48121143  0.07260891  0.04689360  1
  C  C25  1  0.05819437  0.20889135  0.07160629  1
  C  C26  1  0.47614939  0.12170596  0.11682594  1
  O  O27  1  0.20916237  0.23470189  0.11496805  1
  H  H28  1  0.17956521  0.02080734  0.19123237  1
  H  H29  1  0.04989435  0.23103752  0.10310495  1
  H  H30  1  0.23219748  0.05525699  0.00542860  1
  H  H31  1  0.07732655  0.05898646  0.03392091  1
  C  C32  1  0.01317481  0.10206346  0.11151526  1
  O  O33  1  0.17450862  0.01367624  0.29471774  1
  C  C34  1  0.16139289  0.24931186  0.31739647  1
  H  H35  1  0.20983061  0.22537965  0.31284173  1
  H  H36  1  0.18744977  0.13852372  0.26353493  1
  H  H37  1  0.37821149  0.15411222  0.25495132  1
  H  H38  1  0.15409930  0.23140547  0.46181120  1
  C  C39  1  0.07670505  0.23903905  0.32089152  1
  C  C40  1  0.24350608  0.13733979  0.49495847  1
  C  C41  1  0.25989310  0.06958728  0.30026167  1
  C  C42  1  0.04897675  0.19392772  0.31774266  1
  H  H43  1  0.48783004  0.13659225  0.46604768  1
  N  N44  1  0.38165176  0.04268191  0.41182260  1
  O  O45  1  0.26959914  0.01736342  0.48153554  1
  C  C46  1  0.44512859  0.00287056  0.31034334  1
  H  H47  1  0.23720489  0.08161960  0.44416227  1
  C  C48  1  0.48817906  0.08152833  0.32526561  1
  C  C49  1  0.19243104  0.01533313  0.48553295  1
  C  C50  1  0.21581169  0.03758524  0.27144127  1
  O  O51  1  0.14450158  0.02134275  0.45095021  1
  H  H52  1  0.34611457  0.11817228  0.30069579  1
  O  O53  1  0.00816658  0.19573173  0.45238945  1
  Zn  Zn54  1  0.48457478  0.22683618  0.32679666  1
  C  C55  1  0.36119249  0.11018210  0.45159670  1
  H  H56  1  0.26380766  0.06684739  0.34190462  1
  C  C57  1  0.39586493  0.08362958  0.40913147  1
  H  H58  1  0.42961939  0.02848939  0.39612132  1
  N  N59  1  0.44754145  0.14138440  0.37089960  1
  N  N60  1  0.10315190  0.16961492  0.29539380  1
  C  C61  1  0.30998519  0.09783725  0.27734996  1
  C  C62  1  0.42050728  0.13785337  0.47437555  1
  H  H63  1  0.34529696  0.03079410  0.44117252  1
  C  C64  1  0.44364937  0.09862185  0.36874366  1
  N  N65  1  0.46892092  0.16807193  0.34086167  1
  C  C66  1  0.27513520  0.10673322  0.46140484  1
  N  N67  1  0.17172070  0.16759892  0.27333652  1
  C  C68  1  0.48149642  0.04046931  0.29607271  1
  C  C69  1  0.24674258  0.19610236  0.54614190  1
  H  H70  1  0.27284015  0.02501460  0.57530412  1
  O  O71  1  0.17378390  0.19437829  0.55657808  1
  H  H72  1  0.27915138  0.04660516  0.70505954  1
  O  O73  1  0.29391781  0.22339559  0.55846988  1
  C  C74  1  0.15867451  0.00552833  0.53852602  1
  H  H75  1  0.42440259  0.18970294  0.52295764  1
  C  C76  1  0.21146034  0.01086186  0.58122768  1
  C  C77  1  0.14143172  0.08810468  0.66488069  1
  O  O78  1  0.10885492  0.11545602  0.67210140  1
  C  C79  1  0.29796629  0.16444728  0.51436947  1
  H  H80  1  0.49226636  0.02155281  0.73425546  1
  N  N81  1  0.36669539  0.01839639  0.66766448  1
  C  C82  1  0.33105361  0.02529469  0.71071270  1
  O  O83  1  0.45560288  0.23721894  0.69928297  1
  C  C84  1  0.38715274  0.24614788  0.69095772  1
  H  H85  1  0.17987308  0.13746191  0.50347094  1
  C  C86  1  0.38459734  0.16659776  0.50588857  1
  O  O87  1  0.49041110  0.21801774  0.98296814  1
  C  C88  1  0.06934612  0.15617620  0.99071423  1
  N  N89  1  0.28513142  0.01781289  0.96858716  1
  H  H90  1  0.45883457  0.01183702  0.82557995  1
  C  C91  1  0.00431039  0.01513022  0.96176221  1
  H  H92  1  0.07679690  0.13568446  0.95713167  1
  N  N93  1  0.06912184  0.24453951  0.78122261  1
  H  H94  1  0.22105635  0.22946648  0.77378789  1
  O  O95  1  0.04836326  0.03942144  0.93861414  1
  N  N96  1  0.35453779  0.00582664  0.97085635  1
  N  N97  1  0.28486860  0.01113634  0.79509024  1
  C  C98  1  0.33813385  0.00349347  0.75771130  1
  N  N99  1  0.26337061  0.00553624  0.84025524  1
  H  H100  1  0.19758331  0.16239458  0.99532061  1
  C  C101  1  0.41575541  0.28204056  0.11425462  1
  C  C102  1  0.16697417  0.34136867  0.03219726  1
  C  C103  1  0.46683759  0.31627234  0.13039641  1
  N  N104  1  0.44202943  0.35105563  0.15644222  1
  C  C105  1  0.36281322  0.34728479  0.17157816  1
  H  H106  1  0.32273747  0.32041001  0.16336680  1
  H  H107  1  0.14094594  0.35323161  0.11222932  1
  C  C108  1  0.12182627  0.33942213  0.07811098  1
  C  C109  1  0.33723134  0.38391234  0.19590716  1
  N  N110  1  0.38641758  0.41604871  0.19580864  1
  H  H111  1  0.21064559  0.32998440  0.19117425  1
  C  C112  1  0.24994120  0.38760686  0.21561868  1
  N  N113  1  0.41765587  0.45031548  0.20125277  1
  C  C114  1  0.11105120  0.47274312  0.05572957  1
  C  C115  1  0.02803747  0.29585547  0.02779281  1
  C  C116  1  0.05578362  0.31153528  0.07396005  1
  C  C117  1  0.05402088  0.33891660  0.19685645  1
  H  H118  1  0.29708984  0.47098266  0.20745239  1
  C  C119  1  0.10513029  0.43224823  0.04019461  1
  H  H120  1  0.16345812  0.41581866  0.04592323  1
  O  O121  1  0.24914050  0.46762435  0.08255842  1
  H  H122  1  0.35561277  0.27627203  0.13164773  1
  C  C123  1  0.19258682  0.35680787  0.21311605  1
  C  C124  1  0.03723870  0.41561562  0.01591306  1
  C  C125  1  0.02537630  0.31715959  0.16421146  1
  C  C126  1  0.43844948  0.25930498  0.07272409  1
  C  C127  1  0.18928230  0.48731480  0.07822186  1
  C  C128  1  0.03751647  0.49787316  0.05336466  1
  C  C129  1  0.10757107  0.36469027  0.22801831  1
  N  N130  1  0.24796641  0.46041169  0.22761377  1
  C  C131  1  0.21455584  0.42568090  0.23519064  1
  N  N132  1  0.00756876  0.29852925  0.11885134  1
  H  H133  1  0.16575383  0.45661946  0.37878639  1
  N  N134  1  0.39890728  0.27182552  0.33208467  1
  C  C135  1  0.07454805  0.40023815  0.25490602  1
  H  H136  1  0.32145737  0.48859851  0.31615340  1
  O  O137  1  0.37802415  0.32650858  0.48965779  1
  H  H138  1  0.00132772  0.48660001  0.32294030  1
  C  C139  1  0.10583427  0.49877159  0.42833828  1
  H  H140  1  0.01077972  0.40139931  0.26705150  1
  N  N141  1  0.17718739  0.49805684  0.25103630  1
  C  C142  1  0.05509730  0.49813468  0.30065521  1
  C  C143  1  0.12330131  0.26282331  0.46218465  1
  H  H144  1  0.14236058  0.35319865  0.34944804  1
  N  N145  1  0.04859636  0.39759724  0.38628668  1
  C  C146  1  0.13006372  0.43289562  0.25711162  1
  C  C147  1  0.11594774  0.47677314  0.26988931  1
  H  H148  1  0.38315191  0.42269112  0.28908119  1
  C  C149  1  0.36637340  0.40561732  0.41857054  1
  C  C150  1  0.33058687  0.47439360  0.39741717  1
  N  N151  1  0.31894245  0.26897047  0.32637607  1
  C  C152  1  0.36803677  0.42859707  0.32894825  1
  C  C153  1  0.37809971  0.39731150  0.36616592  1
  C  C154  1  0.29590428  0.34377749  0.34401091  1
  N  N155  1  0.37523052  0.35393482  0.35345333  1
  C  C156  1  0.18399012  0.29024623  0.32845810  1
  C  C157  1  0.01871456  0.26860929  0.33464911  1
  H  H158  1  0.33341632  0.45207402  0.47483937  1
  C  C159  1  0.27123985  0.30455235  0.33346030  1
  C  C160  1  0.04384839  0.43466925  0.40808129  1
  C  C161  1  0.33842571  0.46650731  0.34359262  1
  Zn  Zn162  1  0.48509212  0.31846545  0.34984442  1
  C  C163  1  0.12498987  0.32128530  0.34222954  1
  C  C164  1  0.11157775  0.46323397  0.40342368  1
  C  C165  1  0.37887223  0.30566354  0.45903727  1
  H  H166  1  0.36835033  0.37784436  0.44498574  1
  C  C167  1  0.34433780  0.44438135  0.43533268  1
  H  H168  1  0.01970386  0.37148524  0.46084438  1
  C  C169  1  0.03771002  0.26790089  0.45424542  1
  C  C170  1  0.04094544  0.31139433  0.33756227  1
  C  C171  1  0.04163494  0.34006039  0.46351600  1
  H  H172  1  0.25915105  0.37098584  0.34754931  1
  C  C173  1  0.12861646  0.33550134  0.47525178  1
  H  H174  1  0.23689166  0.29529547  0.47378269  1
  N  N175  1  0.17911138  0.36455271  0.49669226  1
  C  C176  1  0.16843738  0.29672649  0.47002400  1
  H  H177  1  0.08738484  0.39855456  0.48692479  1
  C  C178  1  0.07357881  0.45824636  0.57843021  1
  N  N179  1  0.33687523  0.44764055  0.57469708  1
  N  N180  1  0.27392643  0.42094057  0.53799178  1
  C  C181  1  0.15687514  0.46504303  0.56036355  1
  C  C182  1  0.03014533  0.48692712  0.61320005  1
  C  C183  1  0.14491074  0.28133392  0.66415156  1
  N  N184  1  0.02845881  0.42476593  0.57513269  1
  C  C185  1  0.19671993  0.43131847  0.53150212  1
  C  C186  1  0.21192868  0.30833421  0.65196180  1
  C  C187  1  0.29751110  0.29912725  0.66318454  1
  C  C188  1  0.19239069  0.34697891  0.63163548  1
  C  C189  1  0.06205334  0.29058806  0.65184203  1
  N  N190  1  0.40168192  0.42847746  0.57741484  1
  C  C191  1  0.11235791  0.35699091  0.62692590  1
  N  N192  1  0.47173877  0.44377822  0.62527929  1
  C  C193  1  0.04477189  0.32980644  0.63424172  1
  H  H194  1  0.09425750  0.38705695  0.61669758  1
  H  H195  1  0.24670021  0.36599812  0.61993490  1
  O  O196  1  0.35041813  0.32257521  0.65561934  1
  H  H197  1  0.03519435  0.39542112  0.56298254  1
  C  C198  1  0.03648590  0.44844699  0.71227616  1
  H  H199  1  0.14728120  0.41291972  0.70502567  1
  C  C200  1  0.11915948  0.44070899  0.71642471  1
  C  C201  1  0.15082401  0.39942553  0.50335734  1
  O  O202  1  0.31709224  0.25544669  0.68145705  1
  H  H203  1  0.46153106  0.35911927  0.61634085  1
  H  H204  1  0.42179244  0.26722875  0.52517712  1
  H  H205  1  0.00977650  0.26886152  0.65355006  1
  C  C206  1  0.48062776  0.27209314  0.54543471  1
  C  C207  1  0.49116225  0.30885633  0.56658571  1
  H  H208  1  0.15941523  0.25283375  0.68522480  1
  H  H209  1  0.00886776  0.28983473  0.74655934  1
  H  H210  1  0.43898346  0.33006723  0.56483140  1
  O  O211  1  0.29100814  0.42463860  0.73130486  1
  C  C212  1  0.16829677  0.46911188  0.74288428  1
  O  O213  1  0.02085723  0.39221224  0.83416535  1
  N  N214  1  0.39476889  0.36285681  0.98618565  1
  Zn  Zn215  1  0.25781782  0.35009718  0.97869768  1
  O  O216  1  0.07696466  0.40102031  0.90710878  1
  C  C217  1  0.26504041  0.45569410  0.75093548  1
  C  C218  1  0.17295418  0.33679426  0.83081325  1
  H  H219  1  0.04807136  0.46378381  0.95483818  1
  O  O220  1  0.30362850  0.37713914  0.87191527  1
  C  C221  1  0.00479681  0.25776894  0.75981114  1
  C  C222  1  0.21249517  0.25954874  0.78901210  1
  H  H223  1  0.04354265  0.28866925  0.94195974  1
  C  C224  1  0.03504752  0.41436912  0.87075010  1
  H  H225  1  0.43616994  0.38945834  0.84809484  1
  O  O226  1  0.30925812  0.48113043  0.77443027  1
  H  H227  1  0.34366895  0.27521748  0.80821138  1
  C  C228  1  0.48082087  0.36383893  0.86176555  1
  C  C229  1  0.12687537  0.27249688  0.79283697  1
  C  C230  1  0.06599820  0.30127631  0.97845334  1
  C  C231  1  0.49101048  0.46849982  0.95311123  1
  C  C232  1  0.27538993  0.28420274  0.80622528  1
  N  N233  1  0.44135207  0.36157195  0.94782640  1
  C  C234  1  0.32131817  0.34725326  0.84919087  1
  O  O235  1  0.39656448  0.33425884  0.84155191  1
  C  C236  1  0.25196390  0.32131580  0.82810726  1
  C  C237  1  0.10917117  0.31291251  0.81156506  1
  H  H238  1  0.15997632  0.36612008  0.84450079  1
  O  O239  1  0.43022942  0.46125817  0.94087392  1
  C  C240  1  0.01617622  0.47809479  0.92167844  1
  H  H241  1  0.04598890  0.32486146  0.81232785  1
  C  C242  1  0.13966143  0.32368784  0.98734178  1
  H  H243  1  0.03918328  0.38535624  0.99785447  1
  H  H244  1  0.09007488  0.70686452  0.19791853  1
  N  N245  1  0.14759623  0.60662800  0.19960263  1
  N  N246  1  0.14653234  0.64004415  0.22183706  1
  C  C247  1  0.37660214  0.56712953  0.10331567  1
  C  C248  1  0.40987575  0.52713252  0.10283279  1
  H  H249  1  0.31323251  0.57269715  0.11956238  1
  C  C250  1  0.38817624  0.64315138  0.09032292  1
  C  C251  1  0.42366255  0.59884421  0.08765574  1
  C  C252  1  0.06353868  0.70733833  0.23753337  1
  C  C253  1  0.05608453  0.73430149  0.03375844  1
  H  H254  1  0.12446243  0.53468464  0.08970268  1
  O  O255  1  0.31609713  0.64326769  0.10404066  1
  C  C256  1  0.37058034  0.56556848  0.24310882  1
  O  O257  1  0.37684479  0.54004273  0.21902504  1
  O  O258  1  0.03900213  0.53508007  0.06720501  1
  O  O259  1  0.19225808  0.52736670  0.09520840  1
  H  H260  1  0.01037186  0.58842357  0.23671266  1
  H  H261  1  0.37685534  0.50439021  0.12332023  1
  N  N262  1  0.02627067  0.69912309  0.03916515  1
  C  C263  1  0.49527409  0.52297994  0.08971926  1
  O  O264  1  0.42289535  0.67448611  0.07800085  1
  Zn  Zn265  1  0.17538758  0.55775312  0.24748450  1
  H  H266  1  0.48358147  0.73613904  0.07104253  1
  H  H267  1  0.26939858  0.74795756  0.16617391  1
  C  C268  1  0.48926387  0.73186698  0.44945097  1
  H  H269  1  0.35896714  0.71738843  0.39618027  1
  C  C270  1  0.48718557  0.55218563  0.43057461  1
  C  C271  1  0.27329308  0.73384661  0.47774018  1
  C  C272  1  0.00315839  0.73453411  0.25099654  1
  C  C273  1  0.28878668  0.67221630  0.35674666  1
  C  C274  1  0.00463151  0.55786792  0.30996495  1
  H  H275  1  0.24729664  0.57257400  0.32825896  1
  C  C276  1  0.18276524  0.67494511  0.44411859  1
  C  C277  1  0.37969570  0.62084201  0.43989845  1
  C  C278  1  0.15898039  0.65470020  0.27088776  1
  N  N279  1  0.07112429  0.53604286  0.29067022  1
  H  H280  1  0.13715226  0.67443124  0.47741547  1
  C  C281  1  0.21759085  0.64744300  0.36199632  1
  N  N282  1  0.08275657  0.74251064  0.41809470  1
  C  C283  1  0.20093800  0.63074554  0.30842275  1
  C  C284  1  0.45191820  0.56161638  0.47541393  1
  C  C285  1  0.11093168  0.69040427  0.28040828  1
  C  C286  1  0.41805471  0.61398940  0.39420203  1
  C  C287  1  0.47178298  0.58015289  0.38867295  1
  C  C288  1  0.39789760  0.59501756  0.47994580  1
  C  C289  1  0.48608002  0.73434610  0.39671378  1
  O  O290  1  0.28989657  0.51696561  0.46521658  1
  H  H291  1  0.15389738  0.70892100  0.36079265  1
  C  C292  1  0.03754331  0.51107161  0.46229656  1
  N  N293  1  0.22634218  0.59408788  0.30252818  1
  C  C294  1  0.10843876  0.71257823  0.32860075  1
  O  O295  1  0.27474163  0.54202502  0.38399543  1
  C  C296  1  0.16525507  0.64734196  0.40613857  1
  C  C297  1  0.04322851  0.73740470  0.33731937  1
  H  H298  1  0.15535132  0.52187978  0.42500254  1
  H  H299  1  0.41156041  0.63599117  0.36274706  1
  H  H300  1  0.11012738  0.62660783  0.40453764  1
  C  C301  1  0.25265253  0.69881681  0.44014171  1
  C  C302  1  0.30685521  0.69758643  0.39852373  1
  H  H303  1  0.32694377  0.67065737  0.31995885  1
  H  H304  1  0.28069293  0.54523151  0.46943703  1
  H  H305  1  0.33182422  0.64451390  0.44961488  1
  C  C306  1  0.29239065  0.51410676  0.41026431  1
  H  H307  1  0.33628155  0.74490979  0.32032179  1
  O  O308  1  0.04037403  0.54397737  0.48180584  1
  C  C309  1  0.23325361  0.58656313  0.66604203  1
  N  N310  1  0.25276492  0.61707326  0.70114751  1
  C  C311  1  0.28441225  0.65531039  0.68510759  1
  C  C312  1  0.06308985  0.70049518  0.67990014  1
  H  H313  1  0.31872147  0.63341866  0.61068881  1
  C  C314  1  0.31501530  0.66089522  0.63504606  1
  C  C315  1  0.28356989  0.68971097  0.71871068  1
  C  C316  1  0.29787273  0.72765923  0.70256606  1
  C  C317  1  0.32989902  0.69870217  0.61839180  1
  C  C318  1  0.32605198  0.73512557  0.64887921  1
  H  H319  1  0.34810562  0.70154852  0.57785896  1
  C  C320  1  0.20597046  0.55960003  0.63995349  1
  O  O321  1  0.37345001  0.58868570  0.57214478  1
  N  N322  1  0.06325630  0.71212171  0.72940990  1
  H  H323  1  0.04486899  0.53262754  0.66723311  1
  O  O324  1  0.30927255  0.63427369  0.52910598  1
  C  C325  1  0.35753634  0.60576509  0.53125589  1
  C  C326  1  0.05656192  0.67729777  0.57402380  1
  C  C327  1  0.15961804  0.52617307  0.61611814  1
  C  C328  1  0.12915579  0.71071975  0.64434960  1
  H  H329  1  0.48500151  0.71702258  0.65156128  1
  H  H330  1  0.45830248  0.72189750  0.74619930  1
  C  C331  1  0.47938093  0.69245513  0.72748883  1
  C  C332  1  0.07516310  0.51790089  0.63476050  1
  C  C333  1  0.12804093  0.70010680  0.59536128  1
  H  H334  1  0.20238721  0.61517139  0.72589262  1
  H  H335  1  0.18429577  0.71066508  0.57058065  1
  O  O336  1  0.05576800  0.66561202  0.53063966  1
  C  C337  1  0.09580453  0.74808888  0.73802609  1
  H  H338  1  0.46783568  0.54310392  0.51065766  1
  H  H339  1  0.18135725  0.72944394  0.65911569  1
  O  O340  1  0.24870549  0.73301755  0.52275314  1
  C  C341  1  0.19514392  0.50050642  0.57876716  1
  C  C342  1  0.49431112  0.69117389  0.67618217  1
  H  H343  1  0.25650543  0.50626058  0.56304656  1
  C  C344  1  0.45945218  0.54453022  0.86075517  1
  O  O345  1  0.48563676  0.62994796  0.83965799  1
  C  C346  1  0.36169565  0.55302667  0.93082588  1
  H  H347  1  0.40565979  0.53837788  0.78509114  1
  N  N348  1  0.15833199  0.61095423  0.80068569  1
  C  C349  1  0.29146962  0.54850571  0.89920826  1
  H  H350  1  0.49842757  0.56191749  0.93742554  1
  C  C351  1  0.44289111  0.55253216  0.91245485  1
  Zn  Zn352  1  0.20783113  0.53754493  0.79953676  1
  N  N353  1  0.10307525  0.60026437  0.77575394  1
  C  C354  1  0.08619546  0.74751336  0.98476319  1
  H  H355  1  0.03736741  0.59120286  0.89301806  1
  H  H356  1  0.00259941  0.69537704  0.80181756  1
  H  H357  1  0.26388257  0.68686078  0.75835422  1
  C  C358  1  0.03247337  0.69384386  0.93090999  1
  H  H359  1  0.35257268  0.56048373  0.97184000  1
  O  O360  1  0.44650309  0.69340703  0.83305744  1
  O  O361  1  0.19489429  0.55153550  0.97551978  1
  C  C362  1  0.07729863  0.73094080  0.93292826  1
  C  C363  1  0.07453728  0.74059402  0.83872444  1
  H  H364  1  0.02507724  0.54719376  0.76640055  1
  C  C365  1  0.02478938  0.70618002  0.83837048  1
  C  C366  1  0.20030679  0.54967988  0.92845687  1
  H  H367  1  0.01477589  0.67839678  0.96546911  1
  C  C368  1  0.39122739  0.54039227  0.82719546  1
  C  C369  1  0.04715681  0.51663804  0.75445446  1
  C  C370  1  0.31199504  0.54165439  0.84911403  1
  C  C371  1  0.47126849  0.66202747  0.81418898  1
  O  O372  1  0.13788100  0.54640181  0.90020401  1
  C  C373  1  0.12787964  0.50275160  0.76232177  1
  C  C374  1  0.00418404  0.68250350  0.88287344  1
  C  C375  1  0.48906801  0.65797148  0.75797266  1
  C  C376  1  0.16438958  0.77749493  0.20730791  1
  H  H377  1  0.24581731  0.83991670  0.14793786  1
  C  C378  1  0.23339505  0.86604249  0.17466262  1
  C  C379  1  0.17495487  0.89471269  0.16107635  1
  C  C380  1  0.25041266  0.76411268  0.20048384  1
  C  C381  1  0.30315315  0.77398489  0.23910774  1
  H  H382  1  0.32528432  0.84901527  0.22275416  1
  C  C383  1  0.27831232  0.87143824  0.21956545  1
  C  C384  1  0.15887916  0.92926775  0.19215424  1
  O  O385  1  0.14436689  0.86486033  0.07878571  1
  C  C386  1  0.12640295  0.89095763  0.11007267  1
  H  H387  1  0.11191971  0.95257319  0.18050361  1
  O  O388  1  0.06634790  0.91430648  0.10469457  1
  N  N389  1  0.14524688  0.80314177  0.02486570  1
  H  H390  1  0.15592869  0.83314590  0.02340774  1
  C  C391  1  0.10933023  0.76913945  0.16605040  1
  O  O392  1  0.02092947  0.77957812  0.17562752  1
  H  H393  1  0.46321648  0.93634882  0.13656993  1
  H  H394  1  0.37112517  0.76926067  0.23580822  1
  N  N395  1  0.47488806  0.89697060  0.00971023  1
  C  C396  1  0.20969527  0.93437589  0.23310106  1
  C  C397  1  0.47939837  0.87733657  0.18728235  1
  C  C398  1  0.48395262  0.92432249  0.17318294  1
  O  O399  1  0.44061508  0.85511881  0.16127715  1
  O  O400  1  0.13448973  0.75445476  0.12887539  1
  H  H401  1  0.05362574  0.75217158  0.06901558  1
  N  N402  1  0.01657426  0.76258170  0.49255125  1
  C  C403  1  0.43933442  0.76851800  0.37144285  1
  C  C404  1  0.13493275  0.79615159  0.25145136  1
  H  H405  1  0.06787251  0.80387778  0.25692166  1
  C  C406  1  0.27029012  0.90609529  0.25351706  1
  N  N407  1  0.44702628  0.83838464  0.38580901  1
  N  N408  1  0.46394086  0.94746954  0.36864116  1
  N  N409  1  0.46894713  0.80090705  0.39369273  1
  C  C410  1  0.00772272  0.88911024  0.45774668  1
  C  C411  1  0.41800806  0.96639294  0.32798007  1
  Zn  Zn412  1  0.37605460  0.87024753  0.33421075  1
  C  C413  1  0.19194088  0.80572899  0.28947751  1
  C  C414  1  0.27523819  0.79607143  0.28302483  1
  O  O415  1  0.08106099  0.88280652  0.45601333  1
  N  N416  1  0.44824662  0.90958468  0.37743067  1
  H  H417  1  0.31371574  0.97036118  0.27302502  1
  C  C418  1  0.03185859  0.75952219  0.38581472  1
  C  C419  1  0.37248274  0.77025019  0.33561207  1
  H  H420  1  0.46000649  0.75572758  0.47409712  1
  N  N421  1  0.32568451  0.91395511  0.29245283  1
  H  H422  1  0.17223128  0.82093598  0.32372731  1
  C  C423  1  0.34346154  0.95134420  0.29899146  1
  O  O424  1  0.31574390  0.76090163  0.46194766  1
  N  N425  1  0.34135612  0.80501412  0.31859665  1
  H  H426  1  0.20039743  0.96161737  0.25818420  1
  N  N427  1  0.08850179  0.76141774  0.47782188  1
  O  O428  1  0.42565853  0.96583507  0.49403850  1
  C  C429  1  0.31565810  0.85438121  0.59337413  1
  H  H430  1  0.32365766  0.82269595  0.60767349  1
  C  C431  1  0.23720493  0.87344916  0.59667582  1
  C  C432  1  0.20288283  0.84348870  0.66775865  1
  N  N433  1  0.17414296  0.85997050  0.62665275  1
  C  C434  1  0.22075660  0.90872770  0.56459407  1
  H  H435  1  0.26923290  0.84299297  0.67346407  1
  C  C436  1  0.37637408  0.87311325  0.56394787  1
  C  C437  1  0.28557975  0.92980684  0.54272013  1
  C  C438  1  0.36336818  0.91176107  0.54272568  1
  C  C439  1  0.14305905  0.83243206  0.70685168  1
  H  H440  1  0.15701092  0.91976109  0.56396286  1
  H  H441  1  0.09457017  0.80007672  0.63107936  1
  N  N442  1  0.07098974  0.96281903  0.67387492  1
  H  H443  1  0.18886407  0.93822898  0.68924124  1
  C  C444  1  0.12427374  0.94414549  0.70419770  1
  C  C445  1  0.03972974  0.80900362  0.65053174  1
  C  C446  1  0.05047806  0.82874334  0.69629997  1
  C  C447  1  0.10083209  0.98040979  0.62945349  1
  N  N448  1  0.42526017  0.83862615  0.72558727  1
  H  H449  1  0.36549653  0.92600441  0.71397905  1
  H  H450  1  0.08134430  0.87786027  0.55170554  1
  H  H451  1  0.43560342  0.85772510  0.55719372  1
  N  N452  1  0.29163616  0.81582686  0.74045300  1
  N  N453  1  0.32728867  0.84811429  0.74281069  1
  N  N454  1  0.18295679  0.82091972  0.74617869  1
  H  H455  1  0.27511449  0.95910178  0.52589765  1
  C  C456  1  0.04561373  0.98242171  0.58624259  1
  O  O457  1  0.33399544  0.76967173  0.63200421  1
  H  H458  1  0.11538771  0.76511866  0.70432345  1
  H  H459  1  0.38713431  0.96156656  0.59958084  1
  C  C460  1  0.43956512  0.96641037  0.62411338  1
  C  C461  1  0.08187761  0.92881427  0.74737052  1
  C  C462  1  0.43204083  0.93410419  0.51506747  1
  C  C463  1  0.01800458  0.89145915  0.55519710  1
  H  H464  1  0.01881195  0.89506952  0.63878765  1
  C  C465  1  0.43632484  0.99457298  0.66589862  1
  N  N466  1  0.02329956  0.78173322  0.55133044  1
  C  C467  1  0.40269421  0.93117634  0.74624568  1
  C  C468  1  0.07690422  0.99041083  0.53824610  1
  H  H469  1  0.29492739  0.75139121  0.73222531  1
  O  O470  1  0.49318332  0.90945832  0.50869153  1
  C  C471  1  0.48418922  0.86541558  0.73331659  1
  H  H472  1  0.21983103  0.99795046  0.66231793  1
  C  C473  1  0.18320724  0.99535312  0.62741556  1
  H  H474  1  0.04162602  0.98536116  0.50155141  1
  C  C475  1  0.10541251  0.75323165  0.88763034  1
  H  H476  1  0.00625376  0.83491428  0.95385538  1
  H  H477  1  0.16457847  0.88950242  0.93278212  1
  N  N478  1  0.34613973  0.91743960  0.90277951  1
  N  N479  1  0.11634779  0.78560942  0.98634533  1
  H  H480  1  0.36018951  0.83247062  0.83521296  1
  H  H481  1  0.15215716  0.77509882  0.89375442  1
  C  C482  1  0.20522389  0.90200914  0.80431914  1
  C  C483  1  0.36897218  0.85767209  0.86415365  1
  C  C484  1  0.40042984  0.96995041  0.77118581  1
  N  N485  1  0.13243049  0.79631188  0.79627122  1
  C  C486  1  0.49567804  0.80927550  0.82745528  1
  H  H487  1  0.25342513  0.91085096  0.77976139  1
  C  C488  1  0.07121034  0.88866395  0.87428702  1
  H  H489  1  0.14197491  0.80974618  0.83055123  1
  Zn  Zn490  1  0.45393872  0.90944137  0.93063358  1
  C  C491  1  0.11968764  0.90423237  0.79056581  1
  C  C492  1  0.15627674  0.89141815  0.89142600  1
  H  H493  1  0.44778032  0.81535348  0.79801596  1
  C  C494  1  0.31295131  0.88961864  0.87742610  1
  Zn  Zn495  1  0.30653930  0.97664199  0.90630434  1
  C  C496  1  0.46828990  0.90603695  0.75821054  1
  C  C497  1  0.22150439  0.89330912  0.85677718  1
  C  C498  1  0.45834625  0.98182691  0.80976269  1
  N  N499  1  0.44130375  0.86130566  0.88652769  1
  C  C500  1  0.10381977  0.76065976  0.78926757  1
  C  C501  1  0.05513141  0.89022696  0.82367054  1
  O  O502  1  0.03668298  0.99237199  0.99276843  1
  N  N503  1  0.77946454  0.09005184  0.06205751  1
  Zn  Zn504  1  0.77245527  0.11802774  0.12394030  1
  N  N505  1  0.76196887  0.15984611  0.07266816  1
  N  N506  1  0.69480446  0.07292319  0.13270409  1
  N  N507  1  0.64753174  0.06430066  0.17290663  1
  C  C508  1  0.69935059  0.18534849  0.07087328  1
  C  C509  1  0.61708930  0.16499290  0.08003426  1
  N  N510  1  0.74858327  0.13911487  0.19474834  1
  Zn  Zn511  1  0.70888111  0.04448421  0.06763491  1
  C  C512  1  0.72029649  0.22733943  0.06769164  1
  C  C513  1  0.76978672  0.17956426  0.21257949  1
  H  H514  1  0.92292945  0.20052620  0.06640305  1
  C  C515  1  0.59014589  0.13023450  0.05367633  1
  C  C516  1  0.57733170  0.17731133  0.12530840  1
  H  H517  1  0.59369938  0.20592007  0.14688177  1
  C  C518  1  0.64022696  0.08972618  0.21390804  1
  N  N519  1  0.79557917  0.23786740  0.06118759  1
  N  N520  1  0.59583512  0.02591482  0.02543240  1
  C  C521  1  0.85526167  0.19324042  0.21085456  1
  H  H522  1  0.63837481  0.19484489  0.21634072  1
  O  O523  1  0.97031773  0.07586226  0.09338086  1
  C  C524  1  0.70057529  0.20316648  0.22599006  1
  C  C525  1  0.68837129  0.12438821  0.22290948  1
  H  H526  1  0.90492547  0.17653983  0.18858332  1
  C  C527  1  0.98629784  0.19207881  0.05195429  1
  H  H528  1  0.63005699  0.11599541  0.02540079  1
  H  H529  1  0.54583355  0.01655591  0.22724780  1
  O  O530  1  0.99094206  0.12562351  0.14348839  1
  C  C531  1  0.99009296  0.16762105  0.00855574  1
  Zn  Zn532  1  0.79870769  0.13094078  0.01050515  1
  N  N533  1  0.52344395  0.04121478  0.02984799  1
  C  C534  1  0.50880763  0.15419423  0.14544069  1
  C  C535  1  0.51751788  0.10969793  0.07225666  1
  C  C536  1  0.86641754  0.23082274  0.23153694  1
  H  H537  1  0.93129428  0.24201199  0.23440879  1
  C  C538  1  0.54054464  0.24063850  0.00276637  1
  N  N539  1  0.50866352  0.20060617  0.21772623  1
  N  N540  1  0.52348107  0.22321092  0.25408035  1
  C  C541  1  0.57648758  0.07922427  0.25224872  1
  C  C542  1  0.53362018  0.04249859  0.25312936  1
  C  C543  1  0.71308003  0.24040250  0.25080306  1
  C  C544  1  0.70877363  0.23445749  0.47674423  1
  O  O545  1  0.90197679  0.23526984  0.43885267  1
  C  C546  1  0.97319573  0.18038129  0.33620635  1
  C  C547  1  0.97531250  0.23019586  0.44769602  1
  O  O548  1  0.59888728  0.11849367  0.44352198  1
  H  H549  1  0.71583650  0.16118998  0.43752554  1
  H  H550  1  0.68274848  0.14417422  0.25830863  1
  N  N551  1  0.94673108  0.14334215  0.33110344  1
  O  O552  1  0.93107464  0.07607741  0.43217851  1
  C  C553  1  0.71480002  0.10774331  0.39075254  1
  C  C554  1  0.74949048  0.14379743  0.40793499  1
  C  C555  1  0.82592593  0.15557370  0.39111832  1
  H  H556  1  0.55205482  0.13537921  0.30206283  1
  C  C557  1  0.76055226  0.08454016  0.35559166  1
  O  O558  1  0.85746975  0.02250469  0.42450456  1
  C  C559  1  0.83336757  0.09782030  0.33595050  1
  C  C560  1  0.87246880  0.13529704  0.35268333  1
  C  C561  1  0.53999281  0.10278164  0.29462254  1
  H  H562  1  0.92669781  0.19859755  0.35652988  1
  C  C563  1  0.89557500  0.04819166  0.45138869  1
  C  C564  1  0.63436075  0.09427254  0.41360455  1
  H  H565  1  0.85522780  0.18250337  0.41275328  1
  O  O566  1  0.60456792  0.06201735  0.39945725  1
  H  H567  1  0.73290361  0.05505996  0.34316367  1
  H  H568  1  0.86303864  0.08025407  0.30558258  1
  H  H569  1  0.66471465  0.21215942  0.45981363  1
  O  O570  1  0.83896618  0.01942860  0.25730776  1
  C  C571  1  0.78772607  0.00056168  0.26545678  1
  C  C572  1  0.70471894  0.05428491  0.68191456  1
  C  C573  1  0.70583183  0.08998461  0.71020578  1
  C  C574  1  0.73156010  0.05493103  0.63048042  1
  C  C575  1  0.72895428  0.13033384  0.69269074  1
  C  C576  1  0.90464602  0.06171181  0.69100411  1
  C  C577  1  0.73998634  0.09462262  0.60898484  1
  C  C578  1  0.74656743  0.12939138  0.63854172  1
  H  H579  1  0.76421081  0.15755905  0.62070812  1
  C  C580  1  0.75974509  0.14184820  0.54281911  1
  N  N581  1  0.75163078  0.10058657  0.55383848  1
  H  H582  1  0.74225443  0.02829955  0.60605396  1
  C  C583  1  0.90688944  0.03548642  0.61188236  1
  N  N584  1  0.91769793  0.02747655  0.66577723  1
  H  H585  1  0.89417465  0.08633075  0.66379221  1
  H  H586  1  0.90739691  0.15067588  0.69486733  1
  C  C587  1  0.95293912  0.06827683  0.58971170  1
  C  C588  1  0.94522605  0.07230817  0.53721048  1
  H  H589  1  0.86562089  0.23333740  0.57321421  1
  C  C590  1  0.76106573  0.17718235  0.53089296  1
  H  H591  1  0.70631629  0.09216624  0.52658564  1
  C  C592  1  0.85734338  0.01054138  0.53083082  1
  H  H593  1  0.67199800  0.22949656  0.56924689  1
  C  C594  1  0.90580881  0.14854516  0.73799552  1
  O  O595  1  0.53711952  0.21040536  0.51362117  1
  C  C596  1  0.54415424  0.24222092  0.53711641  1
  C  C597  1  0.76682995  0.21955550  0.51332775  1
  C  C598  1  0.82284241  0.24391680  0.53996351  1
  C  C599  1  0.89652483  0.04420568  0.51002626  1
  C  C600  1  0.93613393  0.18501044  0.62180181  1
  O  O601  1  0.95155509  0.21970571  0.62392222  1
  O  O602  1  0.92333639  0.15032159  0.62252034  1
  N  N603  1  0.86974134  0.24366872  0.73127198  1
  C  C604  1  0.90274846  0.06789968  0.74391622  1
  C  C605  1  0.86177897  0.00612572  0.58379411  1
  H  H606  1  0.97230796  0.10028013  0.51921112  1
  O  O607  1  0.72674761  0.15903755  0.72218664  1
  H  H608  1  0.68412768  0.02388101  0.69784991  1
  H  H609  1  0.99465356  0.08803349  0.61202126  1
  C  C610  1  0.93351312  0.23152264  0.75175674  1
  H  H611  1  0.98751332  0.17145882  0.92489350  1
  H  H612  1  0.75574071  0.03002923  0.87239977  1
  H  H613  1  0.70112478  0.13665046  0.77131636  1
  N  N614  1  0.90351870  0.03795754  0.78220189  1
  N  N615  1  0.91223532  0.00086930  0.76616672  1
  C  C616  1  0.91075872  0.00881498  0.95120573  1
  O  O617  1  0.79576415  0.24202196  0.90306940  1
  C  C618  1  0.91860461  0.18406662  0.81800197  1
  C  C619  1  0.88929273  0.14687934  0.84179548  1
  N  N620  1  0.76052465  0.11025157  0.94472038  1
  C  C621  1  0.87413110  0.14266359  0.89701261  1
  C  C622  1  0.92786132  0.15766551  0.93380468  1
  O  O623  1  0.65504444  0.04967142  0.77744815  1
  O  O624  1  0.66786599  0.11516000  0.79353818  1
  H  H625  1  0.92967469  0.21248040  0.83906882  1
  N  N626  1  0.91823598  0.15165179  0.98358080  1
  H  H627  1  0.84418505  0.08492574  0.83702182  1
  C  C628  1  0.79173957  0.01672659  0.90263277  1
  N  N629  1  0.80379887  0.12061168  0.90702972  1
  H  H630  1  0.90862741  0.04462167  0.87980885  1
  C  C631  1  0.87462905  0.02724717  0.90892923  1
  C  C632  1  0.86324656  0.11158902  0.81553121  1
  C  C633  1  0.67543013  0.08154930  0.76254745  1
  C  C634  1  0.88904426  0.11066126  0.76399806  1
  C  C635  1  0.92206259  0.18455688  0.76622447  1
  C  C636  1  0.63662357  0.40744815  0.02238282  1
  N  N637  1  0.63948257  0.40838860  0.11018020  1
  N  N638  1  0.61401139  0.42107560  0.15489504  1
  C  C639  1  0.84239878  0.30882292  0.04747983  1
  C  C640  1  0.86175423  0.34619716  0.06996166  1
  C  C641  1  0.83819528  0.35024521  0.12040140  1
  H  H642  1  0.79373502  0.32773134  0.19393717  1
  H  H643  1  0.89284228  0.37116694  0.04762646  1
  C  C644  1  0.84954052  0.39117672  0.14691869  1
  C  C645  1  0.80488529  0.32020644  0.15287456  1
  H  H646  1  0.76940040  0.39684859  0.03940018  1
  O  O647  1  0.89924522  0.41284810  0.12567740  1
  O  O648  1  0.80168527  0.40384378  0.18235084  1
  Zn  Zn649  1  0.64092339  0.40926592  0.23481441  1
  C  C650  1  0.78544999  0.28337522  0.13145172  1
  C  C651  1  0.60997131  0.43051001  0.06831539  1
  C  C652  1  0.56769429  0.46763518  0.06428336  1
  C  C653  1  0.80234569  0.27830684  0.07886727  1
  H  H654  1  0.62116341  0.30370540  0.03950195  1
  C  C655  1  0.87133388  0.48048011  0.22782290  1
  H  H656  1  0.55130013  0.48453560  0.02912174  1
  H  H657  1  0.94244389  0.29727141  0.11606620  1
  C  C658  1  0.96082310  0.43960654  0.01560408  1
  H  H659  1  0.57596315  0.35000144  0.11017676  1
  C  C660  1  0.56481694  0.29953735  0.06025049  1
  H  H661  1  0.75960928  0.25779600  0.15289623  1
  Zn  Zn662  1  0.53269562  0.46453825  0.17854359  1
  C  C663  1  0.96513454  0.48008410  0.03203975  1
  H  H664  1  0.90794621  0.45149054  0.22710681  1
  H  H665  1  0.86781041  0.48367521  0.14434955  1
  C  C666  1  0.71820926  0.39331872  0.01149909  1
  H  H667  1  0.85781452  0.30375353  0.00670984  1
  H  H668  1  0.97238749  0.27635898  0.02684579  1
  N  N669  1  0.59987639  0.46966285  0.24682317  1
  H  H670  1  0.90402551  0.49726207  0.03250752  1
  N  N671  1  0.81880028  0.38438774  0.24376221  1
  H  H672  1  0.68473005  0.25279951  0.08103895  1
  C  C673  1  0.54103266  0.32293500  0.10293661  1
  C  C674  1  0.51228199  0.26766172  0.04830158  1
  N  N675  1  0.53464852  0.48753689  0.10373957  1
  C  C676  1  0.84928433  0.49828780  0.17982926  1
  N  N677  1  0.88792815  0.42387934  0.00013585  1
  C  C678  1  0.54814746  0.43406034  0.49964265  1
  H  H679  1  0.66339051  0.26201849  0.26321697  1
  O  O680  1  0.88902780  0.43990246  0.31724605  1
  O  O681  1  0.88542602  0.30014209  0.28712140  1
  H  H682  1  0.76454787  0.33242451  0.47723760  1
  C  C683  1  0.70659863  0.27455968  0.46424805  1
  H  H684  1  0.91556073  0.48983930  0.48435513  1
  C  C685  1  0.76396232  0.30065746  0.48781892  1
  C  C686  1  0.61232182  0.32930367  0.43302419  1
  C  C687  1  0.80719896  0.28928290  0.28235168  1
  C  C688  1  0.54660651  0.38869629  0.42757754  1
  N  N689  1  0.90069969  0.34119506  0.32709038  1
  H  H690  1  0.92670780  0.42110119  0.44712156  1
  H  H691  1  0.63514522  0.48243565  0.39904739  1
  C  C692  1  0.97463871  0.44460088  0.44186807  1
  N  N693  1  0.75484764  0.38737903  0.26995021  1
  N  N694  1  0.77329121  0.37419177  0.42098073  1
  C  C695  1  0.97489168  0.34404292  0.34445982  1
  H  H696  1  0.58684914  0.41521346  0.35568827  1
  C  C697  1  0.85550559  0.47281769  0.32234452  1
  C  C698  1  0.57833561  0.42103930  0.39721305  1
  N  N699  1  0.60068520  0.49286802  0.28587912  1
  O  O700  1  0.75018960  0.30517737  0.30334965  1
  N  N701  1  0.55154186  0.34760342  0.40792377  1
  C  C702  1  0.97803919  0.38367470  0.36892045  1
  N  N703  1  0.55872584  0.38001888  0.28300880  1
  C  C704  1  0.60011125  0.45884918  0.41786050  1
  N  N705  1  0.82974823  0.39229159  0.44437047  1
  N  N706  1  0.56373620  0.34516473  0.29853601  1
  C  C707  1  0.63744653  0.28912056  0.43104955  1
  C  C708  1  0.97204044  0.48111746  0.46452840  1
  C  C709  1  0.58727307  0.46288036  0.47030049  1
  N  N710  1  0.54590111  0.26622050  0.36898171  1
  H  H711  1  0.95684177  0.25848014  0.34530628  1
  H  H712  1  0.63805782  0.35018851  0.45955964  1
  Zn  Zn713  1  0.80533914  0.37384243  0.34620369  1
  H  H714  1  0.92836367  0.40572713  0.36527600  1
  H  H715  1  0.93207487  0.30679690  0.44399364  1
  N  N716  1  0.60331476  0.25812353  0.40339441  1
  C  C717  1  0.99668622  0.30448992  0.45266178  1
  C  C718  1  0.79684832  0.25114817  0.25466931  1
  C  C719  1  0.53092551  0.39636101  0.47927728  1
  O  O720  1  0.83795916  0.48958854  0.36120719  1
  C  C721  1  0.83470675  0.49489844  0.27182928  1
  C  C722  1  0.59047696  0.43452505  0.68211502  1
  C  C723  1  0.56730840  0.31869687  0.59142133  1
  N  N724  1  0.58552586  0.35483443  0.61498445  1
  C  C725  1  0.52176137  0.37531537  0.62319397  1
  H  H726  1  0.66816267  0.38288258  0.66238076  1
  C  C727  1  0.63156666  0.28624470  0.59472590  1
  C  C728  1  0.52352557  0.41837958  0.64141843  1
  C  C729  1  0.57451044  0.47031579  0.70768157  1
  Zn  Zn730  1  0.86881932  0.38502778  0.62853534  1
  H  H731  1  0.68751294  0.28556567  0.62099430  1
  N  N732  1  0.75807301  0.42964909  0.60199350  1
  C  C733  1  0.93920477  0.30721625  0.58365865  1
  C  C734  1  0.66213921  0.41082734  0.68429559  1
  C  C735  1  0.89340693  0.48136293  0.66959150  1
  N  N736  1  0.84027786  0.35347992  0.56412777  1
  C  C737  1  0.86179257  0.31474485  0.55702631  1
  N  N738  1  0.72771332  0.43493910  0.56057201  1
  C  C739  1  0.81666753  0.28485567  0.52513906  1
  N  N740  1  0.83384608  0.37178525  0.69952128  1
  C  C741  1  0.72813504  0.42217238  0.71884152  1
  N  N742  1  0.94225632  0.43057504  0.61111728  1
  H  H743  1  0.82798886  0.48973942  0.66083093  1
  N  N744  1  0.87656239  0.32414759  0.72563249  1
  Zn  Zn745  1  0.78645714  0.39462209  0.51564703  1
  C  C746  1  0.95265470  0.46686248  0.63191104  1
  N  N747  1  0.86586049  0.29433115  0.69850050  1
  C  C748  1  0.80004653  0.39653601  0.73345443  1
  H  H749  1  0.98393142  0.28276984  0.57862825  1
  N  N750  1  0.91804102  0.49768269  0.71067377  1
  N  N751  1  0.96142336  0.33568731  0.61413147  1
  C  C752  1  0.99731224  0.48727138  0.72662430  1
  C  C753  1  0.63992221  0.48149040  0.74413928  1
  C  C754  1  0.71298396  0.45796705  0.74729888  1
  H  H755  1  0.51535041  0.48659907  0.70326514  1
  C  C756  1  0.61926843  0.25213824  0.56863909  1
  H  H757  1  0.99575472  0.42389217  0.69591085  1
  H  H758  1  0.54177719  0.43563918  0.54047997  1
  H  H759  1  0.50724462  0.37172898  0.50385127  1
  C  C760  1  0.50543048  0.36432750  0.91867322  1
  C  C761  1  0.99977075  0.45796656  0.87599237  1
  H  H762  1  0.50656032  0.40687987  0.99853258  1
  O  O763  1  0.60290614  0.25410219  0.97980329  1
  C  C764  1  0.65639826  0.28132313  0.87949671  1
  H  H765  1  0.95154201  0.45116854  0.79841588  1
  C  C766  1  0.78990876  0.48834327  0.92285499  1
  C  C767  1  0.80616220  0.26779464  0.86873161  1
  C  C768  1  0.81347339  0.38977975  0.79397224  1
  C  C769  1  0.56878368  0.39765414  0.98883169  1
  H  H770  1  0.95952886  0.39168500  0.95829908  1
  C  C771  1  0.73728082  0.37411980  0.96340126  1
  H  H772  1  0.57943820  0.48183015  0.89338880  1
  N  N773  1  0.79776809  0.40800047  0.83001364  1
  C  C774  1  0.64607842  0.47534613  0.89264905  1
  C  C775  1  0.58934519  0.30567465  0.87169657  1
  N  N776  1  0.54472034  0.36864564  0.82959017  1
  C  C777  1  0.82765096  0.36767929  0.95258834  1
  C  C778  1  0.66835822  0.36761112  0.93048771  1
  H  H779  1  0.68487626  0.35452613  0.89441043  1
  H  H780  1  0.53141089  0.29912112  0.89089003  1
  C  C781  1  0.72762708  0.28703722  0.84982648  1
  H  H782  1  0.75402719  0.46649880  0.77946648  1
  H  H783  1  0.66934371  0.35510142  0.76489262  1
  N  N784  1  0.85113541  0.33807909  0.92013275  1
  C  C785  1  0.76154986  0.43200609  0.86492292  1
  N  N786  1  0.90701402  0.32257852  0.89445635  1
  C  C787  1  0.59396018  0.33667772  0.83290208  1
  C  C788  1  0.95731589  0.46926733  0.83303852  1
  O  O789  1  0.88085328  0.28120699  0.85912370  1
  H  H790  1  0.63075921  0.42892768  0.83816604  1
  H  H791  1  0.86354712  0.36941822  0.81247854  1
  C  C792  1  0.81795980  0.45573179  0.89599420  1
  C  C793  1  0.89489817  0.39123090  0.97087138  1
  C  C794  1  0.67511175  0.44299077  0.86468023  1
  H  H795  1  0.88404615  0.44501742  0.89590211  1
  C  C796  1  0.66546413  0.33548430  0.79702394  1
  C  C797  1  0.73474783  0.31423099  0.80777260  1
  C  C798  1  0.58320608  0.37379600  0.94452457  1
  H  H799  1  0.79356013  0.31551447  0.78406052  1
  C  C800  1  0.70328872  0.49888213  0.92253781  1
  H  H801  1  0.65814023  0.25722004  0.90993473  1
  C  C802  1  0.71197466  0.58474094  0.12422941  1
  C  C803  1  0.61336661  0.62735709  0.17497114  1
  C  C804  1  0.64406435  0.58810215  0.16219985  1
  N  N805  1  0.72090908  0.61173068  0.08669919  1
  H  H806  1  0.63161409  0.65278290  0.14865937  1
  N  N807  1  0.74994229  0.62771476  0.04822126  1
  N  N808  1  0.83215738  0.55634981  0.09002255  1
  C  C809  1  0.78209075  0.55674241  0.12702868  1
  C  C810  1  0.79892437  0.53305118  0.17702323  1
  H  H811  1  0.74019320  0.57978297  0.22469800  1
  C  C812  1  0.77518522  0.54921712  0.22420107  1
  H  H813  1  0.65201967  0.52681922  0.19020959  1
  C  C814  1  0.62276316  0.55591863  0.19531524  1
  O  O815  1  0.74451009  0.70932315  0.19910038  1
  H  H816  1  0.81138870  0.57335690  0.06164171  1
  C  C817  1  0.78903413  0.67958308  0.19269656  1
  C  C818  1  0.86520746  0.72202397  0.12741593  1
  C  C819  1  0.56680986  0.63308827  0.21933184  1
  O  O820  1  0.72928592  0.67963703  0.03515824  1
  C  C821  1  0.85723296  0.68499377  0.15315587  1
  O  O822  1  0.78475957  0.64867951  0.21742238  1
  N  N823  1  0.53980365  0.70691747  0.15977408  1
  C  C824  1  0.52919346  0.70993664  0.20903738  1
  H  H825  1  0.60400212  0.55592318  0.05218778  1
  C  C826  1  0.90039090  0.65028116  0.13993905  1
  C  C827  1  0.54048002  0.55792759  0.06988601  1
  C  C828  1  0.92730224  0.72804042  0.09261141  1
  H  H829  1  0.88980114  0.61917026  0.15452268  1
  C  C830  1  0.53464272  0.67371559  0.23827204  1
  C  C831  1  0.96154485  0.65481411  0.10287000  1
  C  C832  1  0.97829135  0.69414158  0.07980439  1
  C  C833  1  0.57448333  0.55932863  0.24074191  1
  H  H834  1  0.54105215  0.62517292  0.05883732  1
  H  H835  1  0.82098172  0.74537946  0.13890375  1
  H  H836  1  0.99224852  0.62846641  0.08804826  1
  C  C837  1  0.55754486  0.74411046  0.13863630  1
  H  H838  1  0.52607914  0.74232236  0.22382612  1
  C  C839  1  0.50691708  0.59658710  0.07122120  1
  C  C840  1  0.99503117  0.59263145  0.27730591  1
  H  H841  1  0.98691929  0.54108226  0.39044162  1
  C  C842  1  0.54345300  0.60039917  0.25070058  1
  H  H843  1  0.51483576  0.60299925  0.28923538  1
  N  N844  1  0.50271543  0.57527043  0.34026780  1
  C  C845  1  0.94546854  0.63296213  0.34876317  1
  H  H846  1  0.79890404  0.62666625  0.31398374  1
  H  H847  1  0.51506289  0.51579494  0.35945679  1
  N  N848  1  0.52850467  0.67067901  0.28802077  1
  H  H849  1  0.95944754  0.65469487  0.27099887  1
  O  O850  1  0.90399294  0.70005821  0.31992727  1
  H  H851  1  0.76254285  0.54465223  0.30682994  1
  C  C852  1  0.96278169  0.73237104  0.30652694  1
  C  C853  1  0.51604274  0.70107636  0.36539901  1
  C  C854  1  0.67722242  0.63273848  0.33696931  1
  H  H855  1  0.52231077  0.52397868  0.42572576  1
  C  C856  1  0.96204123  0.62796553  0.29565728  1
  C  C857  1  0.52538795  0.69881853  0.47456596  1
  C  C858  1  0.52591913  0.53912559  0.32967941  1
  H  H859  1  0.72972807  0.63426199  0.26659616  1
  N  N860  1  0.73520850  0.62023998  0.30398377  1
  H  H861  1  0.59964111  0.64363184  0.46466872  1
  N  N862  1  0.51077923  0.70364285  0.31444896  1
  C  C863  1  0.56673058  0.66838237  0.44620819  1
  H  H864  1  0.95189958  0.60487484  0.42685991  1
  C  C865  1  0.98300473  0.56652914  0.36346249  1
  O  O866  1  0.66227202  0.52557601  0.46875299  1
  C  C867  1  0.55968451  0.53028195  0.28168101  1
  C  C868  1  0.91776257  0.67329588  0.36680317  1
  C  C869  1  0.78735369  0.52934152  0.27055960  1
  C  C870  1  0.56390603  0.67101365  0.39359987  1
  C  C871  1  0.62368781  0.64488336  0.36561183  1
  C  C872  1  0.95893908  0.60233947  0.38486806  1
  O  O873  1  0.91688755  0.68373987  0.40925100  1
  C  C874  1  0.62045991  0.50387193  0.49359200  1
  H  H875  1  0.55718290  0.59209514  0.66787753  1
  H  H876  1  0.70866093  0.72297146  0.61615655  1
  O  O877  1  0.84059601  0.73478773  0.66412692  1
  C  C878  1  0.53448755  0.61908091  0.68622635  1
  N  N879  1  0.54465494  0.65099698  0.60707660  1
  C  C880  1  0.52357055  0.65386154  0.65460443  1
  O  O881  1  0.89594110  0.60388479  0.72634913  1
  C  C882  1  0.83572556  0.59993586  0.71126101  1
  C  C883  1  0.52082552  0.62124543  0.73873199  1
  C  C884  1  0.70464569  0.74540527  0.64525076  1
  C  C885  1  0.53714613  0.70133028  0.52953875  1
  O  O886  1  0.59858093  0.50831052  0.53849586  1
  C  C887  1  0.53521307  0.68339589  0.58142626  1
  N  N888  1  0.51503219  0.71985094  0.56968969  1
  H  H889  1  0.93536092  0.67543942  0.68675487  1
  H  H890  1  0.93277329  0.65616958  0.59338968  1
  C  C891  1  0.98848420  0.68111581  0.66032480  1
  C  C892  1  0.99045377  0.66898341  0.61118555  1
  H  H893  1  0.98730026  0.53446535  0.95795550  1
  H  H894  1  0.50494612  0.50567402  0.80430090  1
  C  C895  1  0.94940484  0.64430067  0.87823468  1
  C  C896  1  0.97567231  0.51618783  0.92493862  1
  H  H897  1  0.89030812  0.52106772  0.80630217  1
  C  C898  1  0.77106339  0.69194195  0.99892214  1
  C  C899  1  0.69305256  0.74731371  0.84004033  1
  H  H900  1  0.52716270  0.59348150  0.76274917  1
  C  C901  1  0.92855916  0.50913998  0.83776280  1
  O  O902  1  0.75323955  0.74110534  0.86967681  1
  O  O903  1  0.68818594  0.72778050  0.80219124  1
  N  N904  1  0.54085619  0.55228920  0.83947191  1
  C  C905  1  0.94188238  0.53397680  0.88125716  1
  N  N906  1  0.87200959  0.64495363  0.86569324  1
  N  N907  1  0.71570952  0.62916306  0.87192150  1
  N  N908  1  0.91530586  0.57626211  0.87984837  1
  Zn  Zn909  1  0.78194043  0.68086943  0.88074519  1
  C  C910  1  0.86976674  0.73902512  0.96348036  1
  C  C911  1  0.68452528  0.53463715  0.95466094  1
  Zn  Zn912  1  0.80946381  0.59403063  0.85227037  1
  O  O913  1  0.61822809  0.54828200  0.96229706  1
  N  N914  1  0.70820166  0.56956786  0.82178622  1
  C  C915  1  0.97476005  0.60324842  0.88441098  1
  O  O916  1  0.63922943  0.65908608  0.89025792  1
  H  H917  1  0.89825755  0.70817928  0.95550935  1
  O  O918  1  0.79777852  0.66985771  0.96465071  1
  Zn  Zn919  1  0.61776294  0.60231503  0.85180819  1
  C  C920  1  0.80352714  0.73558886  0.99656295  1
  H  H921  1  0.65622128  0.68486737  0.90891494  1
  N  N922  1  0.70589519  0.53814621  0.79134185  1
  C  C923  1  0.55766103  0.52611907  0.80273522  1
  C  C924  1  0.63419450  0.51691247  0.77869367  1
  H  H925  1  0.83237922  0.50565633  0.94853297  1
  H  H926  1  0.72581393  0.57606999  0.99779291  1
  O  O927  1  0.75481799  0.55297040  0.98022303  1
  C  C928  1  0.62334783  0.81025974  0.08953628  1
  C  C929  1  0.65834655  0.79969164  0.13665404  1
  C  C930  1  0.66908128  0.84749583  0.06922576  1
  O  O931  1  0.72471993  0.86395584  0.08885213  1
  H  H932  1  0.71008713  0.81568818  0.15402408  1
  C  C933  1  0.55152571  0.79064377  0.06871377  1
  C  C934  1  0.62385128  0.76679583  0.15984261  1
  H  H935  1  0.91809492  0.93652576  0.12838914  1
  H  H936  1  0.92137797  0.82133337  0.17298197  1
  C  C937  1  0.86709764  0.92005739  0.15114759  1
  C  C938  1  0.88776711  0.88700875  0.17956623  1
  H  H939  1  0.95044719  0.87635565  0.18249612  1
  C  C940  1  0.77395504  0.96833801  0.10938705  1
  C  C941  1  0.78338355  0.93547901  0.14851923  1
  C  C942  1  0.88121634  0.80983959  0.20559552  1
  C  C943  1  0.81949514  0.86884264  0.20839734  1
  C  C944  1  0.72382203  0.91920436  0.18016624  1
  H  H945  1  0.65903553  0.93263719  0.18379498  1
  C  C946  1  0.74063276  0.88802425  0.21436061  1
  O  O947  1  0.70519736  0.98300309  0.09207865  1
  N  N948  1  0.81796634  0.82908810  0.22590103  1
  N  N949  1  0.90507556  0.77676786  0.23223963  1
  O  O950  1  0.64170103  0.85880133  0.02513278  1
  N  N951  1  0.52143055  0.92103884  0.02793372  1
  H  H952  1  0.64845685  0.75664891  0.19703972  1
  O  O953  1  0.83754354  0.98283353  0.09163601  1
  H  H954  1  0.69480006  0.87570076  0.24088669  1
  C  C955  1  0.76361163  0.76780420  0.02189891  1
  H  H956  1  0.52096422  0.80803324  0.03841005  1
  C  C957  1  0.53089549  0.75371264  0.08724605  1
  H  H958  1  0.70984433  0.76800359  0.04692044  1
  C  C959  1  0.51542164  0.94432407  0.20900421  1
  C  C960  1  0.97811200  0.76539041  0.21476706  1
  H  H961  1  0.91152552  0.96816633  0.01393043  1
  H  H962  1  0.92967501  0.75783179  0.07463333  1
  O  O963  1  0.50227263  0.79653669  0.23421815  1
  C  C964  1  0.52179410  0.86868228  0.23395419  1
  H  H965  1  0.76174622  0.95214907  0.00758906  1
  C  C966  1  0.54768103  0.93979846  0.25599675  1
  O  O967  1  0.96232321  0.89637803  0.42025322  1
  O  O968  1  0.63578211  0.91149002  0.44380878  1
  H  H969  1  0.76919778  0.77114357  0.47908153  1
  C  C970  1  0.85540684  0.86450698  0.34052469  1
  H  H971  1  0.77795107  0.91612195  0.32301801  1
  C  C972  1  0.64130825  0.79225223  0.48226990  1
  H  H973  1  0.94772208  0.80137705  0.43365777  1
  C  C974  1  0.96804420  0.79117853  0.39714970  1
  H  H975  1  0.84140158  0.80508780  0.44915341  1
  C  C976  1  0.53136763  0.82624914  0.25529159  1
  O  O977  1  0.57846985  0.82313323  0.29346670  1
  H  H978  1  0.73014892  0.85914195  0.46627804  1
  H  H979  1  0.62095415  0.78296186  0.44496434  1
  H  H980  1  0.57116895  0.96416134  0.28023378  1
  Zn  Zn981  1  0.51385722  0.87784014  0.44076265  1
  C  C982  1  0.87453787  0.83430725  0.37766247  1
  H  H983  1  0.88867055  0.86552878  0.30348282  1
  C  C984  1  0.76757176  0.85882109  0.43074059  1
  N  N985  1  0.92998774  0.80566674  0.35930983  1
  C  C986  1  0.74731142  0.88854598  0.39540394  1
  H  H987  1  0.85184246  0.90562367  0.47564548  1
  C  C988  1  0.67790282  0.91842697  0.40598595  1
  C  C989  1  0.82988091  0.83025858  0.42307327  1
  C  C990  1  0.79176445  0.89142735  0.35032659  1
  H  H991  1  0.58133764  0.88762378  0.30288672  1
  C  C992  1  0.55089470  0.89721878  0.26761946  1
  O  O993  1  0.66739812  0.94596187  0.37489401  1
  H  H994  1  0.91957363  0.75904406  0.31638046  1
  O  O995  1  0.50686810  0.81940696  0.49836788  1
  H  H996  1  0.83400015  0.83361110  0.62547710  1
  C  C997  1  0.80228699  0.90724455  0.66469759  1
  H  H998  1  0.79200625  0.89461079  0.62515124  1
  C  C999  1  0.89634622  0.83211589  0.64630153  1
  N  N1000  1  0.87568967  0.92853153  0.65330910  1
  C  C1001  1  0.90818102  0.85475653  0.69221570  1
  C  C1002  1  0.83425178  0.87859400  0.70520294  1
  O  O1003  1  0.71988145  0.93359692  0.67620591  1
  C  C1004  1  0.90229239  0.91560149  0.60467057  1
  C  C1005  1  0.87246119  0.78527006  0.55234402  1
  N  N1006  1  0.81381911  0.80574100  0.57281887  1
  O  O1007  1  0.66777477  0.91036427  0.60477986  1
  C  C1008  1  0.65770027  0.93073171  0.64335042  1
  C  C1009  1  0.57782882  0.95074361  0.65477773  1
  C  C1010  1  0.85552744  0.91876113  0.55878090  1
  C  C1011  1  0.57243519  0.97852509  0.69683666  1
  C  C1012  1  0.73810493  0.80575981  0.54902524  1
  C  C1013  1  0.76617452  0.78499801  0.71448836  1
  C  C1014  1  0.62826633  0.79658937  0.68610860  1
  N  N1015  1  0.55345457  0.81481704  0.69289115  1
  C  C1016  1  0.69570574  0.80498470  0.72122108  1
  C  C1017  1  0.95578788  0.78853512  0.57497919  1
  C  C1018  1  0.56195976  0.84996887  0.71363998  1
  C  C1019  1  0.60276482  0.83025173  0.56234879  1
  H  H1020  1  0.56170519  0.84643400  0.58734677  1
  C  C1021  1  0.67923507  0.82492904  0.58237013  1
  H  H1022  1  0.69184320  0.83202944  0.62308478  1
  C  C1023  1  0.96223860  0.81055641  0.62610562  1
  Zn  Zn1024  1  0.94457181  0.97075513  0.69809953  1
  H  H1025  1  0.78931134  0.92785211  0.56058384  1
  H  H1026  1  0.62484820  0.86394718  0.71757794  1
  H  H1027  1  0.62383459  0.98219761  0.72374820  1
  H  H1028  1  0.82668247  0.98087354  0.60506355  1
  H  H1029  1  0.52533798  0.92141019  0.59163746  1
  H  H1030  1  0.97916299  0.97292256  0.58973819  1
  C  C1031  1  0.88711982  0.90869885  0.51157585  1
  C  C1032  1  0.97220028  0.89810934  0.51157907  1
  C  C1033  1  0.98467475  0.89978651  0.60194794  1
  C  C1034  1  0.98186695  0.84693253  0.72187556  1
  C  C1035  1  0.51263306  0.94522164  0.62016408  1
  C  C1036  1  0.63230718  0.76557408  0.64928850  1
  C  C1037  1  0.57952515  0.81517342  0.51232428  1
  C  C1038  1  0.71835279  0.78571496  0.50077346  1
  H  H1039  1  0.82341127  0.98954676  0.50376575  1
  H  H1040  1  0.81768224  0.79093999  0.74113993  1
  C  C1041  1  0.50154970  0.99992631  0.70278336  1
  H  H1042  1  0.85307249  0.76822231  0.51831153  1
  H  H1043  1  0.57966037  0.76112383  0.62350177  1
  N  N1044  1  0.79721461  0.88155511  0.74880619  1
  N  N1045  1  0.99993732  0.93679427  0.74519049  1
  C  C1046  1  0.78000243  0.75277388  0.67404790  1
  H  H1047  1  0.56258931  0.76534638  0.78320663  1
  C  C1048  1  0.80130823  0.80383088  0.99890205  1
  H  H1049  1  0.98818393  0.88621923  0.80990262  1
  C  C1050  1  0.98652107  0.88693244  0.90010160  1
  H  H1051  1  0.69941940  0.82588532  0.75437036  1
  H  H1052  1  0.57545607  0.89296522  0.80886816  1
  C  C1053  1  0.87133458  0.81123693  0.96165326  1
  N  N1054  1  0.72677152  0.87086927  0.98473149  1
  C  C1055  1  0.62674482  0.77860472  0.85228513  1
  C  C1056  1  0.64744543  0.97307994  0.87949836  1
  N  N1057  1  0.66544636  0.97859308  0.92839165  1
  N  N1058  1  0.81082759  0.91929604  0.83352203  1
  N  N1059  1  0.70827512  0.88299578  0.94306423  1
  H  H1060  1  0.69501117  0.97636349  0.84976003  1
  C  C1061  1  0.63333521  0.80270788  0.89495220  1
  Zn  Zn1062  1  0.81075221  0.89072429  0.89856594  1
  N  N1063  1  0.53024523  0.95462337  0.91858642  1
  Zn  Zn1064  1  0.58183877  0.97132179  0.98498495  1
  C  C1065  1  0.51535014  0.95126309  0.82496616  1
  C  C1066  1  0.56429009  0.96219879  0.87346633  1
  C  C1067  1  0.57252094  0.83033952  0.90740307  1
  N  N1068  1  0.88492753  0.85005892  0.94216687  1
  C  C1069  1  0.55846050  0.78273620  0.81841545  1
  C  C1070  1  0.52668382  0.91517498  0.79869458  1
  C  C1071  1  0.90989958  0.77427702  0.94846451  1
  C  C1072  1  0.74954249  0.98998494  0.93673338  1
  H  H1073  1  0.57306675  0.84915087  0.94024184  1
  H  H1074  1  0.68591472  0.79839835  0.92045914  1
  C  C1075  1  0.79094750  0.97187458  0.97908653  1
  N  N1076  1  0.76227765  0.88406204  0.79068594  1
  C  C1077  1  0.87355681  0.98128014  0.98403840  1
  H  H1078  1  0.96118065  0.77313510  0.92039741  1
  C  C1079  1  0.96419400  0.85749241  0.93781017  1
  Zn  Zn1080  1  0.91887049  0.94321935  0.80713288  1
  N  N1081  1  0.92698750  0.90246970  0.87488399  1
  C  C1082  1  0.50178647  0.83233244  0.87414865  1
  H  H1083  1  0.99260956  0.85773123  0.75929609  1
