# generated using pymatgen
data_Na2Zn19H192(C81O20)4
_symmetry_space_group_name_H-M   'P 1'
_cell_length_a   26.85813008
_cell_length_b   30.06542690
_cell_length_c   19.65022601
_cell_angle_alpha   90.00000000
_cell_angle_beta   90.00000000
_cell_angle_gamma   90.00000000
_symmetry_Int_Tables_number   1
_chemical_formula_structural   Na2Zn19H192(C81O20)4
_chemical_formula_sum   'Na4 Zn38 H384 C648 O160'
_cell_volume   15867.58004153
_cell_formula_units_Z   2
loop_
 _symmetry_equiv_pos_site_id
 _symmetry_equiv_pos_as_xyz
  1  'x, y, z'
loop_
 _atom_site_type_symbol
 _atom_site_label
 _atom_site_symmetry_multiplicity
 _atom_site_fract_x
 _atom_site_fract_y
 _atom_site_fract_z
 _atom_site_occupancy
  H  H0  1  0.11621141  0.18907729  0.27239560  1
  O  O1  1  0.04261854  0.06772880  0.23836419  1
  C  C2  1  0.07563975  0.09886878  0.36391999  1
  H  H3  1  0.09175456  0.11389329  0.31628481  1
  C  C4  1  0.02992376  0.17302262  0.07061261  1
  O  O5  1  0.03397787  0.21031468  0.09591064  1
  C  C6  1  0.11272690  0.22274169  0.28505152  1
  C  C7  1  0.04331148  0.06144619  0.35878809  1
  C  C8  1  0.09368896  0.11091151  0.42733851  1
  C  C9  1  0.02836722  0.04579614  0.28784560  1
  H  H10  1  0.07552358  0.06728453  0.09833130  1
  H  H11  1  0.16506197  0.08129138  0.09930873  1
  C  C12  1  0.15225288  0.04911854  0.07891514  1
  C  C13  1  0.02583187  0.03968573  0.41580690  1
  C  C14  1  0.10083350  0.04278657  0.07327127  1
  H  H15  1  0.12392179  0.13549760  0.42971773  1
  C  C16  1  0.22042949  0.20690869  0.42108029  1
  C  C17  1  0.01975431  0.21420084  0.26581059  1
  C  C18  1  0.20272258  0.16257963  0.20235767  1
  C  C19  1  0.03860929  0.05496395  0.48146965  1
  O  O20  1  0.18211591  0.13738227  0.16794373  1
  O  O21  1  0.02263837  0.17283147  0.26287683  1
  C  C22  1  0.07725085  0.08800680  0.48596260  1
  C  C23  1  0.06790315  0.15481872  0.02131452  1
  H  H24  1  0.10786108  0.21707026  0.03619279  1
  H  H25  1  0.18944207  0.23467622  0.30304185  1
  C  C26  1  0.21440003  0.12761379  0.40795408  1
  C  C27  1  0.24216438  0.02205754  0.05845673  1
  C  C28  1  0.18699287  0.01898941  0.05327034  1
  C  C29  1  0.08089686  0.00353283  0.04465537  1
  H  H30  1  0.23879516  0.08567292  0.11740913  1
  C  C31  1  0.06500768  0.24223177  0.28221944  1
  H  H32  1  0.02903217  0.09188675  0.00730363  1
  C  C33  1  0.10820505  0.18409027  0.00945480  1
  O  O34  1  0.22515154  0.18959189  0.23288469  1
  C  C35  1  0.15183975  0.24861014  0.30698304  1
  C  C36  1  0.22958646  0.16834303  0.38088202  1
  C  C37  1  0.19723713  0.20303688  0.48671318  1
  C  C38  1  0.19799489  0.12163101  0.47611792  1
  H  H39  1  0.19140925  0.08762047  0.49041310  1
  Zn  Zn40  1  0.00230039  0.20068630  0.43070801  1
  H  H41  1  0.23019634  0.23796519  0.40052678  1
  H  H42  1  0.22186118  0.09683117  0.37623988  1
  H  H43  1  0.24645375  0.17203546  0.33093635  1
  O  O44  1  0.49787808  0.13203485  0.29583997  1
  C  C45  1  0.46066951  0.23648129  0.45221856  1
  O  O46  1  0.48792495  0.10773997  0.49931336  1
  H  H47  1  0.31164497  0.24332716  0.11441748  1
  C  C48  1  0.39373176  0.09240519  0.25798359  1
  C  C49  1  0.31955099  0.13326892  0.17765554  1
  C  C50  1  0.34732038  0.04603013  0.04624359  1
  H  H51  1  0.31577830  0.18284893  0.25495457  1
  C  C52  1  0.26300073  0.05983647  0.09692542  1
  H  H53  1  0.43775415  0.15705813  0.22777530  1
  H  H54  1  0.40236686  0.04623936  0.17388299  1
  O  O55  1  0.40626799  0.12609901  0.39449535  1
  C  C56  1  0.33878346  0.09060652  0.15663403  1
  H  H57  1  0.29171668  0.15179537  0.14846623  1
  C  C58  1  0.33405710  0.15193712  0.24007895  1
  O  O59  1  0.46375765  0.17659838  0.21354938  1
  O  O60  1  0.48884127  0.21446128  0.41346158  1
  C  C61  1  0.33115689  0.00206450  0.00597964  1
  H  H62  1  0.38444134  0.06040849  0.03808651  1
  C  C63  1  0.31836274  0.06549420  0.09911398  1
  H  H64  1  0.42419055  0.07373151  0.28374064  1
  C  C65  1  0.38119741  0.07524441  0.19425678  1
  C  C66  1  0.37639900  0.14661893  0.35322288  1
  O  O67  1  0.35183493  0.17765234  0.38054782  1
  C  C68  1  0.36912539  0.13050438  0.28321210  1
  Zn  Zn69  1  0.36612636  0.18694959  0.47841537  1
  Zn  Zn70  1  0.48239788  0.14379088  0.40551568  1
  C  C71  1  0.10715010  0.12835987  0.67370503  1
  C  C72  1  0.09516441  0.15639378  0.79694628  1
  C  C73  1  0.10021888  0.16458067  0.72592940  1
  C  C74  1  0.10027757  0.20907654  0.69922142  1
  H  H75  1  0.10526672  0.21309710  0.64135353  1
  C  C76  1  0.08938707  0.19010353  0.84478367  1
  C  C77  1  0.08910600  0.13003216  0.60525632  1
  H  H78  1  0.06506736  0.15657482  0.58872965  1
  H  H79  1  0.09372393  0.12159757  0.81726652  1
  H  H80  1  0.07933154  0.18327887  0.89766443  1
  C  C81  1  0.14051669  0.09183545  0.69402140  1
  C  C82  1  0.09827073  0.09500104  0.55935536  1
  C  C83  1  0.12763550  0.06083749  0.58186974  1
  C  C84  1  0.17825711  0.10720569  0.88566619  1
  C  C85  1  0.15216752  0.05839735  0.64702210  1
  C  C86  1  0.18737283  0.06101262  0.89496636  1
  H  H87  1  0.16085959  0.09206471  0.74270749  1
  H  H88  1  0.17273525  0.15396166  0.56570553  1
  C  C89  1  0.14019435  0.12681630  0.94038548  1
  H  H90  1  0.05776467  0.09043167  0.74415267  1
  H  H91  1  0.20573255  0.16698065  0.83258443  1
  C  C92  1  0.20809519  0.13139256  0.83957838  1
  C  C93  1  0.22270497  0.03772403  0.85422579  1
  H  H94  1  0.16776049  0.04161090  0.93439766  1
  H  H95  1  0.21484556  0.12762593  0.67397671  1
  H  H96  1  0.09754377  0.06854094  0.91596711  1
  C  C97  1  0.09844047  0.09798517  0.94746615  1
  H  H98  1  0.13572217  0.03528700  0.54893030  1
  H  H99  1  0.05461172  0.03553938  0.68258512  1
  C  C100  1  0.19592739  0.02622510  0.66132775  1
  H  H101  1  0.22342392  0.22632232  0.61660848  1
  C  C102  1  0.09058379  0.23374617  0.81583624  1
  H  H103  1  0.18088795  0.19070382  0.95736160  1
  C  C104  1  0.14792024  0.16903247  0.96852424  1
  C  C105  1  0.02527258  0.21480958  0.53534303  1
  C  C106  1  0.02701699  0.08864075  0.78179465  1
  C  C107  1  0.24588113  0.10862274  0.80115258  1
  C  C108  1  0.23390371  0.03335718  0.61285101  1
  C  C109  1  0.01768699  0.04831930  0.81647596  1
  C  C110  1  0.04855243  0.00882067  0.78894932  1
  C  C111  1  0.19021842  0.15996993  0.51670320  1
  H  H112  1  0.02438276  0.03601325  0.52762031  1
  C  C113  1  0.06114761  0.00774178  0.71748040  1
  C  C114  1  0.09573122  0.24234529  0.74556140  1
  C  C115  1  0.18214756  0.24423509  0.52588171  1
  H  H116  1  0.01078122  0.15784809  0.77724391  1
  C  C117  1  0.00200038  0.12654958  0.80466058  1
  H  H118  1  0.23473717  0.06048970  0.57640655  1
  H  H119  1  0.23585233  0.22196610  0.70664465  1
  O  O120  1  0.05819539  0.23615398  0.55837859  1
  C  C121  1  0.06046258  0.11350562  0.98983918  1
  H  H122  1  0.33871199  0.14786413  0.81768063  1
  C  C123  1  0.25191720  0.06243530  0.80471678  1
  C  C124  1  0.25009444  0.14182962  0.68580037  1
  H  H125  1  0.31011927  0.01210673  0.58550298  1
  C  C126  1  0.27689255  0.00632227  0.61886504  1
  H  H127  1  0.39228511  0.15595336  0.62471505  1
  C  C128  1  0.32336233  0.15266455  0.76652129  1
  H  H129  1  0.27546582  0.04456447  0.76662332  1
  C  C130  1  0.27297743  0.17073841  0.64098115  1
  C  C131  1  0.31893662  0.19071258  0.65991358  1
  H  H132  1  0.29600203  0.23840957  0.79987808  1
  H  H133  1  0.42209990  0.05723121  0.88040404  1
  H  H134  1  0.42228909  0.14274599  0.86355418  1
  O  O135  1  0.43700223  0.20679820  0.80783650  1
  Zn  Zn136  1  0.45493074  0.19635379  0.60504763  1
  O  O137  1  0.48050073  0.20488311  0.71475656  1
  O  O138  1  0.47374684  0.00222235  0.59369583  1
  H  H139  1  0.38033183  0.19810772  0.72975743  1
  C  C140  1  0.34312531  0.22070301  0.61341945  1
  C  C141  1  0.47904174  0.04791897  0.80477597  1
  H  H142  1  0.25726692  0.17616788  0.59072383  1
  H  H143  1  0.42884596  0.13008936  0.56830534  1
  O  O144  1  0.38734715  0.23375584  0.62939856  1
  C  C145  1  0.27638154  0.13472828  0.74896519  1
  O  O146  1  0.32637872  0.22851061  0.55538312  1
  O  O147  1  0.39254068  0.13881346  0.57431840  1
  C  C148  1  0.44474513  0.11864395  0.83299074  1
  C  C149  1  0.34450825  0.18289358  0.72173072  1
  C  C150  1  0.47036304  0.13677101  0.77685058  1
  C  C151  1  0.46181137  0.18493892  0.76341949  1
  C  C152  1  0.44740239  0.07321494  0.84612729  1
  O  O153  1  0.43937491  0.21653927  0.50424127  1
  C  C154  1  0.15396198  0.42794881  0.21459543  1
  H  H155  1  0.11956115  0.44830072  0.21839357  1
  C  C156  1  0.09522359  0.31553902  0.32371248  1
  H  H157  1  0.09203044  0.35070176  0.33852543  1
  C  C158  1  0.15428092  0.38541779  0.18913665  1
  C  C159  1  0.20379837  0.44423783  0.22797865  1
  C  C160  1  0.02742081  0.46207598  0.42984211  1
  H  H161  1  0.01837645  0.29896842  0.29314713  1
  C  C162  1  0.05780419  0.42423337  0.45901028  1
  C  C163  1  0.19134963  0.31755372  0.34265015  1
  Zn  Zn164  1  0.11382494  0.33468922  0.14637811  1
  C  C165  1  0.19788950  0.35925118  0.17050965  1
  C  C166  1  0.20324471  0.33896952  0.40403575  1
  C  C167  1  0.18973096  0.31485555  0.13163692  1
  H  H168  1  0.17281636  0.35120171  0.43578901  1
  H  H169  1  0.06062084  0.38792936  0.20917048  1
  O  O170  1  0.02686209  0.31363969  0.14297807  1
  H  H171  1  0.04072592  0.45969757  0.28160567  1
  C  C172  1  0.03841786  0.38101141  0.44776314  1
  C  C173  1  0.14254459  0.29510221  0.32132720  1
  O  O174  1  0.20580572  0.28335250  0.10199104  1
  H  H175  1  0.02269513  0.45631745  0.08736815  1
  H  H176  1  0.11544011  0.46241619  0.09986907  1
  C  C177  1  0.04561513  0.43272932  0.05502902  1
  C  C178  1  0.09851203  0.44011814  0.06021782  1
  C  C179  1  0.02125306  0.39992060  0.21934141  1
  C  C180  1  0.01074684  0.44006832  0.25848203  1
  C  C181  1  0.05764999  0.28686677  0.30015516  1
  H  H182  1  0.12975842  0.27066469  0.45014053  1
  H  H183  1  0.22145775  0.29128179  0.24801114  1
  C  C184  1  0.23105007  0.30393893  0.29971440  1
  C  C185  1  0.02512710  0.40297838  0.00964251  1
  O  O186  1  0.04287555  0.49914839  0.43357338  1
  C  C187  1  0.12796391  0.41523317  0.01280772  1
  H  H188  1  0.00102157  0.37331826  0.42416282  1
  C  C189  1  0.10278386  0.43543485  0.48763082  1
  Zn  Zn190  1  0.20048836  0.43009914  0.03247064  1
  C  C191  1  0.06465551  0.34631616  0.47776957  1
  H  H192  1  0.05096301  0.31041952  0.47469365  1
  C  C193  1  0.24780310  0.37741463  0.19049350  1
  C  C194  1  0.24886116  0.41906526  0.21973174  1
  C  C195  1  0.20578326  0.49380713  0.24093444  1
  C  C196  1  0.14702943  0.27498280  0.49853385  1
  H  H197  1  0.11210089  0.47152290  0.49279896  1
  H  H198  1  0.23273327  0.43148473  0.47973182  1
  H  H199  1  0.23993630  0.49826676  0.35173987  1
  O  O200  1  0.38352991  0.25836370  0.03074493  1
  C  C201  1  0.40191582  0.42471698  0.31715699  1
  C  C202  1  0.39342267  0.48666217  0.22534486  1
  C  C203  1  0.36790780  0.29075076  0.13987584  1
  C  C204  1  0.29744829  0.27166947  0.21409229  1
  C  C205  1  0.44462248  0.28232387  0.43878538  1
  C  C206  1  0.49198341  0.40928905  0.07114197  1
  H  H207  1  0.42904183  0.33560310  0.17729975  1
  C  C208  1  0.31793553  0.30284664  0.26010101  1
  C  C209  1  0.49490441  0.45264757  0.24932867  1
  C  C210  1  0.25361578  0.34618255  0.42088740  1
  C  C211  1  0.28041476  0.31372330  0.31488764  1
  H  H212  1  0.37749097  0.35233524  0.28463169  1
  C  C213  1  0.36993385  0.46216562  0.17310070  1
  C  C214  1  0.26616738  0.36570005  0.49353720  1
  H  H215  1  0.47787457  0.48027428  0.27863343  1
  H  H216  1  0.28472914  0.43458523  0.23126318  1
  H  H217  1  0.48601622  0.28830726  0.34678211  1
  H  H218  1  0.49111492  0.40814062  0.41406576  1
  C  C219  1  0.44778356  0.34909114  0.36481619  1
  H  H220  1  0.33663365  0.42355579  0.47062502  1
  C  C221  1  0.39755999  0.28247814  0.07481208  1
  C  C222  1  0.46158359  0.30612449  0.38227448  1
  C  C223  1  0.35160120  0.43474219  0.42191030  1
  O  O224  1  0.46662651  0.43635464  0.03990199  1
  C  C225  1  0.41087667  0.36809692  0.40720717  1
  H  H226  1  0.45997723  0.36528716  0.31720388  1
  C  C227  1  0.29318043  0.33800798  0.37699512  1
  C  C228  1  0.38772451  0.40908127  0.38189108  1
  H  H229  1  0.36492957  0.46058634  0.06227914  1
  H  H230  1  0.45593735  0.47210251  0.15862179  1
  C  C231  1  0.34683875  0.49249401  0.32953372  1
  C  C232  1  0.41370943  0.30563756  0.48580905  1
  H  H233  1  0.28166429  0.35446586  0.18685982  1
  C  C234  1  0.36291066  0.32761634  0.24719380  1
  O  O235  1  0.43871160  0.30351655  0.06419095  1
  C  C236  1  0.39974671  0.34941826  0.47294429  1
  H  H237  1  0.33232608  0.34382952  0.39069119  1
  C  C238  1  0.32367883  0.26601650  0.15419385  1
  C  C239  1  0.38229952  0.46635523  0.29568715  1
  C  C240  1  0.38911740  0.32149234  0.18528116  1
  C  C241  1  0.48284290  0.44798407  0.18126313  1
  H  H242  1  0.43082777  0.40619391  0.29247681  1
  C  C243  1  0.38089622  0.47729487  0.10708257  1
  C  C244  1  0.33205297  0.47519125  0.39324171  1
  H  H245  1  0.35335829  0.43007619  0.17961815  1
  H  H246  1  0.28027683  0.49795827  0.20136105  1
  H  H247  1  0.26248719  0.25266171  0.22776668  1
  H  H248  1  0.49787012  0.34477873  0.49124209  1
  C  C249  1  0.15997157  0.32544437  0.59893684  1
  H  H250  1  0.15132769  0.35738441  0.61994036  1
  C  C251  1  0.18706484  0.29026332  0.62961353  1
  O  O252  1  0.07652999  0.29366131  0.90026672  1
  Zn  Zn253  1  0.09415693  0.31214216  0.74778115  1
  H  H254  1  0.18995363  0.36291357  0.71351163  1
  H  H255  1  0.13391079  0.36582970  0.93458651  1
  C  C256  1  0.12068666  0.40881519  0.80480107  1
  C  C257  1  0.08196347  0.27754631  0.84665186  1
  H  H258  1  0.21205549  0.45114172  0.88376876  1
  O  O259  1  0.11513053  0.38260310  0.75460722  1
  O  O260  1  0.15950128  0.41999083  0.83140194  1
  C  C261  1  0.07162701  0.42913071  0.83084742  1
  C  C262  1  0.07367008  0.46195378  0.88242731  1
  C  C263  1  0.21631998  0.29409886  0.69442387  1
  H  H264  1  0.03832133  0.34929581  0.93155117  1
  H  H265  1  0.11001602  0.46958996  0.90839701  1
  C  C266  1  0.03013517  0.47747576  0.90798129  1
  C  C267  1  0.21323543  0.33589889  0.73127652  1
  C  C268  1  0.14092018  0.31439895  0.53586850  1
  C  C269  1  0.10793440  0.38277514  0.96757421  1
  C  C270  1  0.05639661  0.37520486  0.96711367  1
  C  C271  1  0.02775190  0.41777397  0.79910003  1
  H  H272  1  0.16621791  0.40713291  0.54096015  1
  C  C273  1  0.23862723  0.47383979  0.90863831  1
  C  C274  1  0.11179308  0.35660089  0.50908013  1
  H  H275  1  0.03121136  0.39402420  0.75716202  1
  C  C276  1  0.24461211  0.47633872  0.97978405  1
  O  O277  1  0.00404871  0.31385815  0.73173014  1
  H  H278  1  0.03111160  0.49523393  0.95598327  1
  C  C279  1  0.19636536  0.25036497  0.59436523  1
  C  C280  1  0.23951403  0.25577421  0.72476869  1
  C  C281  1  0.13216646  0.40042688  0.51228407  1
  O  O282  1  0.33914479  0.38842414  0.72697804  1
  H  H283  1  0.46496052  0.31351166  0.60627915  1
  C  C284  1  0.48614477  0.34584149  0.60324076  1
  H  H285  1  0.30259455  0.30336554  0.52612232  1
  H  H286  1  0.38013099  0.36650703  0.51219172  1
  C  C287  1  0.25088794  0.34428985  0.77866971  1
  H  H288  1  0.32791908  0.33200189  0.64310624  1
  H  H289  1  0.26100048  0.37643851  0.80263103  1
  H  H290  1  0.38961384  0.36335351  0.92025179  1
  O  O291  1  0.31238788  0.45339354  0.70608474  1
  H  H292  1  0.43383067  0.26689697  0.93389709  1
  O  O293  1  0.32850676  0.35340367  0.87367941  1
  C  C294  1  0.31957541  0.41432926  0.68719257  1
  H  H295  1  0.35142846  0.47530924  0.85771565  1
  Zn  Zn296  1  0.42714065  0.27961655  0.81242054  1
  C  C297  1  0.29141638  0.33843758  0.54130027  1
  C  C298  1  0.27171055  0.26361113  0.77630958  1
  C  C299  1  0.30768497  0.35241875  0.60303871  1
  C  C300  1  0.27940466  0.30759152  0.80285408  1
  H  H301  1  0.40337421  0.28734372  0.53460389  1
  Zn  Zn302  1  0.38456732  0.39216020  0.81812008  1
  C  C303  1  0.48752869  0.37379281  0.66041258  1
  O  O304  1  0.44669992  0.31446823  0.72232348  1
  O  O305  1  0.35349650  0.28467775  0.85529834  1
  Zn  Zn306  1  0.43339968  0.44391587  0.93899903  1
  O  O307  1  0.42352365  0.37661171  0.92008820  1
  H  H308  1  0.26016038  0.46001612  0.59217512  1
  Zn  Zn309  1  0.47867547  0.33258134  0.97758139  1
  O  O310  1  0.38278195  0.46181715  0.84470222  1
  C  C311  1  0.26933719  0.42489401  0.57958887  1
  O  O312  1  0.45531002  0.28153964  0.90372109  1
  C  C313  1  0.46494984  0.35365981  0.72259065  1
  C  C314  1  0.29694882  0.39722931  0.62055762  1
  C  C315  1  0.32206902  0.31522095  0.84939883  1
  O  O316  1  0.45953868  0.37608096  0.77669042  1
  O  O317  1  0.40211156  0.49717730  0.60571492  1
  C  C318  1  0.25614769  0.40946619  0.51420336  1
  H  H319  1  0.22361054  0.62277962  0.28620338  1
  C  C320  1  0.22065631  0.58744300  0.26648710  1
  C  C321  1  0.09003420  0.57761539  0.33853941  1
  C  C322  1  0.12649153  0.59061221  0.29025725  1
  C  C323  1  0.12176009  0.62999238  0.25037636  1
  C  C324  1  0.04912380  0.60481608  0.34881143  1
  H  H325  1  0.15364373  0.63870648  0.21802053  1
  C  C326  1  0.04217422  0.64386245  0.30755073  1
  H  H327  1  0.09531527  0.54830327  0.37518720  1
  C  C328  1  0.17334264  0.56525170  0.27358083  1
  C  C329  1  0.08129860  0.65715547  0.26313808  1
  H  H330  1  0.07089003  0.68819973  0.23352226  1
  H  H331  1  0.17701564  0.54522765  0.41801753  1
  C  C332  1  0.10176097  0.71123137  0.40047305  1
  H  H333  1  0.08754270  0.67798245  0.38521881  1
  C  C334  1  0.16597800  0.51901110  0.27018611  1
  H  H335  1  0.03168509  0.65862677  0.44304065  1
  C  C336  1  0.09028609  0.73156007  0.46409290  1
  C  C337  1  0.21396414  0.53860153  0.43872189  1
  H  H338  1  0.13997220  0.72060156  0.30592736  1
  C  C339  1  0.13297602  0.73465298  0.35876648  1
  C  C340  1  0.05388123  0.56625696  0.07504911  1
  C  C341  1  0.03141845  0.66799224  0.49624680  1
  H  H342  1  0.01880901  0.59656107  0.38459848  1
  O  O343  1  0.01269571  0.56477662  0.05403210  1
  O  O344  1  0.16314486  0.60554675  0.48255486  1
  C  C345  1  0.23131558  0.55902195  0.49811602  1
  H  H346  1  0.13205326  0.50215642  0.28415881  1
  O  O347  1  0.09393581  0.56650254  0.09595057  1
  C  C348  1  0.24730605  0.51050545  0.40503629  1
  H  H349  1  0.00322675  0.72359237  0.13834650  1
  O  O350  1  0.03198936  0.74321832  0.14302752  1
  O  O351  1  0.25019473  0.71997554  0.46726342  1
  C  C352  1  0.25113729  0.51762245  0.22654240  1
  C  C353  1  0.27682144  0.50516458  0.01734608  1
  O  O354  1  0.48179334  0.74814205  0.00776982  1
  C  C355  1  0.26083083  0.56290581  0.24027311  1
  O  O356  1  0.32201770  0.67652253  0.45074881  1
  H  H357  1  0.27881057  0.50688333  0.07334451  1
  C  C358  1  0.28702305  0.69886366  0.45841079  1
  C  C359  1  0.41017547  0.51553083  0.09657050  1
  C  C360  1  0.37633417  0.61293540  0.15397410  1
  H  H361  1  0.42956523  0.54768237  0.26047156  1
  H  H362  1  0.48793979  0.64136926  0.30220278  1
  C  C363  1  0.41827864  0.52790857  0.21652164  1
  C  C364  1  0.29348258  0.50196828  0.43436096  1
  C  C365  1  0.33655253  0.58498920  0.17019694  1
  C  C366  1  0.42076326  0.53353279  0.02585197  1
  H  H367  1  0.39266949  0.61195421  0.10295576  1
  O  O368  1  0.45536230  0.67248826  0.13409163  1
  C  C369  1  0.42957095  0.54145643  0.15055039  1
  O  O370  1  0.44856657  0.56502235  0.01599807  1
  O  O371  1  0.34579577  0.73667306  0.33651518  1
  H  H372  1  0.32340227  0.55858111  0.13491197  1
  O  O373  1  0.43878532  0.71057722  0.22550289  1
  C  C374  1  0.38802350  0.64661344  0.20295894  1
  H  H375  1  0.35342458  0.71504750  0.37417674  1
  H  H376  1  0.45406694  0.57058052  0.14393122  1
  H  H377  1  0.29947456  0.62826704  0.33145631  1
  C  C378  1  0.32275455  0.62301236  0.28390032  1
  C  C379  1  0.36568368  0.64801582  0.26805437  1
  H  H380  1  0.33143606  0.52350701  0.30811469  1
  C  C381  1  0.42836068  0.67855715  0.18592085  1
  C  C382  1  0.30966000  0.59090567  0.23293835  1
  H  H383  1  0.37998298  0.67208899  0.30661606  1
  C  C384  1  0.30722764  0.51990721  0.49938199  1
  H  H385  1  0.33047644  0.55814060  0.00139984  1
  C  C386  1  0.05966331  0.72207895  0.58492574  1
  C  C387  1  0.08415670  0.68601531  0.74824878  1
  H  H388  1  0.11099685  0.66677672  0.71700818  1
  C  C389  1  0.08910010  0.69105582  0.81880994  1
  H  H390  1  0.11988577  0.67519568  0.84919153  1
  C  C391  1  0.04481816  0.70792414  0.71323435  1
  C  C392  1  0.05127309  0.71454329  0.85483237  1
  O  O393  1  0.20697068  0.61903082  0.57354628  1
  O  O394  1  0.07312567  0.69458014  0.96717263  1
  O  O395  1  0.16269239  0.71916189  0.62986230  1
  C  C396  1  0.05773975  0.70765577  0.51615985  1
  H  H397  1  0.18751744  0.73812762  0.65538983  1
  H  H398  1  0.13761448  0.71802722  0.66617350  1
  C  C399  1  0.04727015  0.71715247  0.93437644  1
  C  C400  1  0.00013243  0.64977758  0.54814956  1
  C  C401  1  0.03398440  0.69927441  0.63682262  1
  C  C402  1  0.00337675  0.66271173  0.61749836  1
  C  C403  1  0.19772907  0.59580610  0.52166130  1
  H  H404  1  0.08420867  0.74913889  0.60485727  1
  C  C405  1  0.01662831  0.74095788  0.82061949  1
  C  C406  1  0.01312693  0.73661547  0.74974027  1
  Na  Na407  1  0.16922990  0.68263240  0.52163081  1
  O  O408  1  0.02206298  0.74958413  0.95861986  1
  H  H409  1  0.03792191  0.57077305  0.52582087  1
  Zn  Zn410  1  0.36522318  0.50013586  0.75567506  1
  C  C411  1  0.49717784  0.63393085  0.81024056  1
  H  H412  1  0.49762112  0.56646059  0.70430082  1
  H  H413  1  0.28982264  0.56452947  0.58164883  1
  C  C414  1  0.49141258  0.74569869  0.94545475  1
  H  H415  1  0.26466461  0.50229900  0.81469459  1
  O  O416  1  0.36650695  0.58477946  0.89513192  1
  C  C417  1  0.46278179  0.69446780  0.64911598  1
  C  C418  1  0.30469201  0.53424820  0.97821823  1
  Zn  Zn419  1  0.44724574  0.57017408  0.90166540  1
  C  C420  1  0.33428335  0.56192402  0.86460288  1
  C  C421  1  0.48447232  0.53764973  0.53734660  1
  H  H422  1  0.45949626  0.51645976  0.50377995  1
  C  C423  1  0.43487786  0.51112145  0.64110696  1
  C  C424  1  0.30115546  0.53150573  0.90638023  1
  O  O425  1  0.33460036  0.55797687  0.80069930  1
  O  O426  1  0.45789880  0.61073192  0.81115534  1
  O  O427  1  0.40479251  0.51094680  0.97796467  1
  O  O428  1  0.43456411  0.50402386  0.70572773  1
  H  H429  1  0.43305219  0.64010359  0.70411830  1
  H  H430  1  0.34706105  0.51079267  0.51859171  1
  H  H431  1  0.43123099  0.69343047  0.61175401  1
  C  C432  1  0.46313081  0.66486991  0.70412310  1
  C  C433  1  0.27682475  0.54936477  0.53293039  1
  C  C434  1  0.47843789  0.53728728  0.60795150  1
  H  H435  1  0.42024306  0.74498501  0.55249492  1
  C  C436  1  0.46634083  0.74954597  0.82250210  1
  H  H437  1  0.44124806  0.74799789  0.71817431  1
  C  C438  1  0.26958933  0.50329745  0.87032323  1
  C  C439  1  0.09209092  0.96277813  0.21333337  1
  C  C440  1  0.14281136  0.95993468  0.21076585  1
  C  C441  1  0.13693016  0.88997894  0.14778288  1
  C  C442  1  0.16506589  0.92359584  0.17763202  1
  H  H443  1  0.16584207  0.98705041  0.22917357  1
  C  C444  1  0.22116146  0.91673832  0.17534428  1
  C  C445  1  0.08600920  0.89610417  0.14704000  1
  H  H446  1  0.15646921  0.86277369  0.12096599  1
  Na  Na447  1  0.11216720  0.86562129  0.29812905  1
  C  C448  1  0.06110092  0.93051981  0.18409176  1
  H  H449  1  0.06167029  0.87294889  0.11658305  1
  O  O450  1  0.15568952  0.92762612  0.37252051  1
  O  O451  1  0.10129069  0.79848542  0.05908053  1
  O  O452  1  0.09412378  0.80628274  0.21950428  1
  O  O453  1  0.07697888  0.92875813  0.36479745  1
  C  C454  1  0.11539789  0.93580974  0.39995406  1
  H  H455  1  0.09350505  0.79629201  0.17644927  1
  C  C456  1  0.13994245  0.79703710  0.43391865  1
  C  C457  1  0.19111101  0.79694402  0.32257255  1
  H  H458  1  0.03129434  0.97309711  0.46702486  1
  H  H459  1  0.15206102  0.83122219  0.44585104  1
  C  C460  1  0.15351849  0.77683194  0.37274181  1
  O  O461  1  0.20683845  0.83503968  0.33355750  1
  Zn  Zn462  1  0.04114770  0.76550825  0.24560232  1
  H  H463  1  0.07744970  0.99282786  0.23650601  1
  H  H464  1  0.02600907  0.85260284  0.43174944  1
  Zn  Zn465  1  0.02100838  0.77314507  0.05365365  1
  C  C466  1  0.10921930  0.77490505  0.48040483  1
  C  C467  1  0.11477948  0.97281956  0.01750398  1
  O  O468  1  0.20390495  0.77745130  0.26865532  1
  O  O469  1  0.02642833  0.81220388  0.32985743  1
  C  C470  1  0.10985991  0.95192270  0.47436930  1
  O  O471  1  0.01331016  0.92992635  0.18721626  1
  C  C472  1  0.16513635  0.97751284  0.02999615  1
  O  O473  1  0.23965530  0.88061404  0.15588137  1
  H  H474  1  0.19258222  0.95157530  0.02275539  1
  O  O475  1  0.00628566  0.97036824  0.00234630  1
  O  O476  1  0.24885411  0.94758958  0.19145331  1
  H  H477  1  0.05169581  0.85986006  0.01768973  1
  C  C478  1  0.13059023  0.80310513  0.00884542  1
  C  C479  1  0.02498063  0.99774809  0.04185440  1
  H  H480  1  0.19165360  0.94298237  0.49361180  1
  C  C481  1  0.06563720  0.96732082  0.49855735  1
  O  O482  1  0.26833482  0.91307387  0.49122788  1
  H  H483  1  0.33826453  0.76255394  0.36228663  1
  O  O484  1  0.30025702  0.87596176  0.29783570  1
  Zn  Zn485  1  0.26546804  0.83079335  0.23209335  1
  C  C486  1  0.45411018  0.81655721  0.12772443  1
  C  C487  1  0.43453752  0.90855078  0.00515752  1
  H  H488  1  0.31191463  0.75524705  0.23564140  1
  C  C489  1  0.49569527  0.97806413  0.17280939  1
  H  H490  1  0.43980663  0.98554876  0.33421533  1
  O  O491  1  0.40075586  0.96112956  0.13809872  1
  O  O492  1  0.33811165  0.92829780  0.42094875  1
  C  C493  1  0.34518122  0.82401688  0.42131601  1
  C  C494  1  0.40627179  0.96773240  0.19849445  1
  H  H495  1  0.39971872  0.88633221  0.09933492  1
  C  C496  1  0.32122248  0.79852576  0.48117104  1
  O  O497  1  0.48895932  0.79157407  0.14266216  1
  Zn  Zn498  1  0.36041785  0.91331696  0.30782101  1
  Zn  Zn499  1  0.39173840  0.76818204  0.23675141  1
  H  H500  1  0.46100675  0.77550245  0.43660158  1
  O  O501  1  0.42480943  0.87471391  0.33181639  1
  C  C502  1  0.46517748  0.84796893  0.07120840  1
  H  H503  1  0.48191115  0.97824556  0.12117067  1
  O  O504  1  0.36894949  0.96567921  0.23967065  1
  O  O505  1  0.44586778  0.80534624  0.30978518  1
  C  C506  1  0.42479017  0.83389636  0.34605051  1
  C  C507  1  0.40034913  0.82243083  0.41360614  1
  C  C508  1  0.46889535  0.98693820  0.29580535  1
  C  C509  1  0.42517778  0.79038302  0.45511367  1
  H  H510  1  0.31955490  0.84575443  0.38883621  1
  Zn  Zn511  1  0.30797140  0.99471091  0.10706319  1
  H  H512  1  0.27081644  0.89541923  0.28831506  1
  H  H513  1  0.43898441  0.93673308  0.43034082  1
  C  C514  1  0.47925933  0.93595583  0.44292873  1
  C  C515  1  0.30197450  0.92137120  0.45604195  1
  H  H516  1  0.27934503  0.79563580  0.48332009  1
  O  O517  1  0.31775100  0.78215450  0.21134668  1
  C  C518  1  0.42864007  0.88094286  0.05994210  1
  C  C519  1  0.45949880  0.97815300  0.22700550  1
  O  O520  1  0.41335212  0.81365629  0.16055677  1
  C  C521  1  0.27305339  0.99842942  0.00856661  1
  H  H522  1  0.40739586  0.93785964  0.00093786  1
  H  H523  1  0.12278739  0.90769098  0.71599511  1
  C  C524  1  0.10226815  0.93544333  0.73755974  1
  C  C525  1  0.08817416  0.93676519  0.80517512  1
  C  C526  1  0.09806992  0.96567838  0.61553229  1
  C  C527  1  0.20789620  0.80387850  0.69427861  1
  C  C528  1  0.09588567  0.89783787  0.85410971  1
  C  C529  1  0.05973824  0.97593666  0.56929612  1
  C  C530  1  0.13656112  0.83635090  0.63961790  1
  C  C531  1  0.14458690  0.95434242  0.58535537  1
  C  C532  1  0.08670308  0.96945286  0.69331193  1
  C  C533  1  0.17770702  0.78249982  0.74539651  1
  C  C534  1  0.13369604  0.86616811  0.84324353  1
  C  C535  1  0.12671376  0.78490915  0.74001634  1
  H  H536  1  0.15381383  0.86377572  0.79617742  1
  C  C537  1  0.19944365  0.96080766  0.89671128  1
  C  C538  1  0.18697646  0.83284129  0.64107326  1
  H  H539  1  0.17740000  0.94524029  0.61723893  1
  C  C540  1  0.10337590  0.81536004  0.69050331  1
  C  C541  1  0.06743953  0.89534921  0.91673326  1
  Zn  Zn542  1  0.07196171  0.86201373  0.60195487  1
  C  C543  1  0.14249884  0.83396112  0.89426772  1
  H  H544  1  0.21250817  0.84536688  0.59887848  1
  C  C545  1  0.06280863  0.97366654  0.83462187  1
  H  H546  1  0.16023809  0.96925129  0.90202780  1
  H  H547  1  0.17511838  0.81221679  0.88310442  1
  C  C548  1  0.04727304  0.82475442  0.68419907  1
  C  C549  1  0.21198225  0.91782651  0.91332964  1
  H  H550  1  0.18162612  0.89930663  0.93920319  1
  C  C551  1  0.11433803  0.83545279  0.95341400  1
  C  C552  1  0.07653030  0.86672882  0.97021888  1
  H  H553  1  0.10030742  0.77030256  0.77681015  1
  H  H554  1  0.19538290  0.75990846  0.78290243  1
  H  H555  1  0.03411870  0.91638889  0.92236343  1
  H  H556  1  0.02246112  0.98807755  0.58361610  1
  C  C557  1  0.15307238  0.94863256  0.51553315  1
  H  H558  1  0.10040583  0.78697410  0.53108433  1
  H  H559  1  0.05561228  0.97750142  0.89041550  1
  C  C560  1  0.23552016  0.98955719  0.86781208  1
  C  C561  1  0.23323959  0.96566452  0.72111877  1
  O  O562  1  0.00590726  0.82092915  0.70166724  1
  H  H563  1  0.23642509  0.94060969  0.76342048  1
  H  H564  1  0.01013877  0.91252085  0.51636752  1
  H  H565  1  0.10318775  0.94039394  0.99435446  1
  H  H566  1  0.00120121  0.90033519  0.68584305  1
  C  C567  1  0.19139081  0.99462595  0.71653512  1
  H  H568  1  0.15595419  0.99031201  0.74654503  1
  O  O569  1  0.16749928  0.78243923  0.99767824  1
  C  C570  1  0.37278635  0.77647622  0.86415916  1
  H  H571  1  0.40177222  0.75953354  0.65581580  1
  H  H572  1  0.25198633  0.98182293  0.96999839  1
  C  C573  1  0.26074733  0.89764766  0.90521489  1
  C  C574  1  0.45633217  0.75624034  0.89278144  1
  C  C575  1  0.43025499  0.75349379  0.77097920  1
  C  C576  1  0.47064422  0.90217618  0.95327617  1
  C  C577  1  0.28536761  0.97191392  0.86186143  1
  C  C578  1  0.34578266  0.77006835  0.73485774  1
  H  H579  1  0.33486861  0.91700393  0.86317761  1
  C  C580  1  0.31465954  0.93901344  0.69325655  1
  C  C581  1  0.48671619  0.96861155  0.76186412  1
  C  C582  1  0.36296491  0.77036699  0.66535056  1
  C  C583  1  0.39879659  0.85364414  0.65540067  1
  Zn  Zn584  1  0.38280380  0.83607807  0.51178191  1
  C  C585  1  0.49674196  0.95821651  0.50000432  1
  C  C586  1  0.48027675  0.92183113  0.76903496  1
  C  C587  1  0.49646061  0.89458269  0.64341935  1
  H  H588  1  0.40531985  0.86884581  0.76460714  1
  C  C589  1  0.47404027  0.93089652  0.88989216  1
  C  C590  1  0.29398783  0.77704564  0.74517700  1
  O  O591  1  0.26971399  0.85789795  0.91888944  1
  O  O592  1  0.41213487  0.96898047  0.54144224  1
  H  H593  1  0.25465462  0.79694693  0.58228599  1
  H  H594  1  0.31639265  0.99414300  0.84102345  1
  C  C595  1  0.33032284  0.77915513  0.61047406  1
  C  C596  1  0.47366500  0.97928579  0.88556367  1
  C  C597  1  0.29753786  0.92845339  0.87332699  1
  O  O598  1  0.36027930  0.97609776  0.98438084  1
  C  C599  1  0.39975242  0.76660127  0.51847696  1
  C  C600  1  0.42259225  0.87172974  0.71226974  1
  H  H601  1  0.48733806  0.88204636  0.53076243  1
  H  H602  1  0.49079221  0.98354122  0.71210699  1
  C  C603  1  0.27394169  0.97061877  0.67338460  1
  H  H604  1  0.35953396  0.84387704  0.65958980  1
  C  C605  1  0.26200300  0.79101362  0.69169717  1
  O  O606  1  0.32809678  0.91131377  0.73392706  1
  H  H607  1  0.28274360  0.77892670  0.79699624  1
  Zn  Zn608  1  0.35931797  0.95530891  0.61400236  1
  C  C609  1  0.42372732  0.86038440  0.59368073  1
  C  C610  1  0.38146870  0.76427363  0.79464593  1
  C  C611  1  0.47200926  0.87782628  0.58324742  1
  C  C612  1  0.47340809  0.90217106  0.83366588  1
  C  C613  1  0.45869832  0.97817497  0.54793854  1
  C  C614  1  0.35023907  0.78058016  0.53820456  1
  C  C615  1  0.28014889  0.78955059  0.62309310  1
  H  H616  1  0.46640149  0.86698069  0.84139290  1
  C  C617  1  0.47005948  0.89295090  0.70681664  1
  H  H618  1  0.46377947  0.99989149  0.92707077  1
  C  C619  1  0.48199491  0.99772088  0.81966629  1
  H  H620  1  0.39867055  0.77787099  0.97046599  1
  H  H621  1  0.33373389  0.78727632  0.87551081  1
  C  C622  1  0.40793637  0.77240698  0.91583361  1
  C  C623  1  0.64265818  0.12971249  0.42449991  1
  H  H624  1  0.60135701  0.12615329  0.42798140  1
  H  H625  1  0.57999781  0.05700652  0.35556889  1
  C  C626  1  0.65727735  0.06884888  0.33192377  1
  C  C627  1  0.61112636  0.04964709  0.32412049  1
  C  C628  1  0.67284044  0.10566445  0.37738248  1
  C  C629  1  0.55341807  0.17131693  0.22405807  1
  C  C630  1  0.70021424  0.05577928  0.28474438  1
  C  C631  1  0.59662077  0.15183124  0.25620934  1
  H  H632  1  0.70875382  0.08043687  0.24184200  1
  H  H633  1  0.58857832  0.12650756  0.29701790  1
  C  C634  1  0.67028225  0.16102780  0.46331288  1
  H  H635  1  0.72282308  0.11956527  0.09265825  1
  H  H636  1  0.54946057  0.04496115  0.45974424  1
  C  C637  1  0.56171016  0.20272295  0.17014533  1
  C  C638  1  0.70743160  0.05522137  0.04748235  1
  C  C639  1  0.64324560  0.16514804  0.23793834  1
  C  C640  1  0.64973502  0.19653975  0.18461151  1
  C  C641  1  0.70035357  0.21350105  0.16399132  1
  H  H642  1  0.69045875  0.21926028  0.05107361  1
  H  H643  1  0.63013086  0.00495383  0.46689379  1
  C  C644  1  0.71483374  0.22690579  0.09632488  1
  C  C645  1  0.60894087  0.21309731  0.14340654  1
  H  H646  1  0.52779419  0.21626582  0.14536542  1
  H  H647  1  0.72950532  0.04569531  0.43096027  1
  C  C648  1  0.61660190  0.02842558  0.04067118  1
  H  H649  1  0.67580321  0.15345962  0.26690382  1
  C  C650  1  0.65309837  0.06121442  0.05104584  1
  H  H651  1  0.61371816  0.23878353  0.10361963  1
  C  C652  1  0.60903120  0.01067623  0.28096484  1
  C  C653  1  0.69946854  0.00861662  0.26241303  1
  H  H654  1  0.72486537  0.21071583  0.27229826  1
  C  C655  1  0.73894750  0.09215863  0.06366898  1
  C  C656  1  0.50474159  0.15996431  0.24957288  1
  C  C657  1  0.57970974  0.05835640  0.49352021  1
  C  C658  1  0.56540223  0.03753609  0.03354634  1
  H  H659  1  0.66157749  0.13225318  0.06429350  1
  C  C660  1  0.63448404  0.10481686  0.05527170  1
  C  C661  1  0.72926736  0.01655364  0.01689280  1
  C  C662  1  0.62482500  0.03709486  0.49371771  1
  C  C663  1  0.58705396  0.11739850  0.03392514  1
  O  O664  1  0.53421561  0.00100446  0.03323524  1
  C  C665  1  0.55271144  0.08209670  0.02488529  1
  H  H666  1  0.57122728  0.00535723  0.15433874  1
  C  C667  1  0.74510747  0.03984744  0.48309888  1
  C  C668  1  0.72713238  0.10942236  0.36674401  1
  C  C669  1  0.72267244  0.16699954  0.45520719  1
  C  C670  1  0.73471995  0.22184829  0.21850987  1
  O  O671  1  0.74787708  0.08261049  0.32145579  1
  C  C672  1  0.74929061  0.13812087  0.41363246  1
  H  H673  1  0.74150519  0.19361114  0.48563191  1
  H  H674  1  0.51301444  0.09028033  0.01574558  1
  C  C675  1  0.58073878  0.16657464  0.01432921  1
  C  C676  1  0.53653141  0.19206080  0.01822096  1
  H  H677  1  0.50288375  0.17852052  0.04446129  1
  C  C678  1  0.97371349  0.14919485  0.48790513  1
  O  O679  1  0.99902503  0.01335253  0.28085550  1
  H  H680  1  0.99831526  0.01169401  0.40882650  1
  C  C681  1  0.79840964  0.03814956  0.48723424  1
  C  C682  1  0.95596275  0.10585440  0.49036201  1
  Zn  Zn683  1  0.92509406  0.15435040  0.02547411  1
  Zn  Zn684  1  0.99861792  0.12096466  0.19584706  1
  C  C685  1  0.78069896  0.01479916  0.00718177  1
  C  C686  1  0.87187318  0.24023984  0.36629616  1
  O  O687  1  0.99249956  0.14776789  0.09064020  1
  C  C688  1  0.78118992  0.24347137  0.21235488  1
  O  O689  1  0.97838166  0.22975174  0.25470040  1
  C  C690  1  0.83851703  0.22592336  0.31727159  1
  H  H691  1  0.84638390  0.00586638  0.26903008  1
  H  H692  1  0.76747347  0.04950623  0.18305674  1
  O  O693  1  0.99899670  0.01940885  0.08478567  1
  C  C694  1  0.82972446  0.01609342  0.37074078  1
  C  C695  1  0.83053285  0.04834655  0.42479011  1
  O  O696  1  0.91194510  0.04492239  0.19933446  1
  Zn  Zn697  1  0.96345288  0.23634578  0.14892031  1
  C  C698  1  0.85450538  0.09012562  0.41589384  1
  H  H699  1  0.94736065  0.08699157  0.44495054  1
  C  C700  1  0.81088285  0.05217669  0.02777138  1
  H  H701  1  0.78960068  0.14529253  0.41108567  1
  H  H702  1  0.93607524  0.02666103  0.45885115  1
  C  C703  1  0.79006466  0.09037100  0.05750934  1
  H  H704  1  0.84204446  0.02063206  0.13227022  1
  H  H705  1  0.81487115  0.11708047  0.07414971  1
  C  C706  1  0.86569634  0.05470096  0.01627470  1
  H  H707  1  0.91294099  0.23377097  0.04966605  1
  O  O708  1  0.91249706  0.21082838  0.08138254  1
  O  O709  1  0.88842718  0.08772476  0.04098081  1
  C  C710  1  0.87950976  0.06698640  0.30559160  1
  H  H711  1  0.88323110  0.21940087  0.41050385  1
  C  C712  1  0.85184048  0.02756680  0.30949043  1
  C  C713  1  0.77556190  0.01380837  0.19045749  1
  O  O714  1  0.92735758  0.11383177  0.23066935  1
  C  C715  1  0.90671346  0.07700769  0.23888581  1
  H  H716  1  0.85151409  0.11686808  0.45404045  1
  H  H717  1  0.89888093  0.13408532  0.34636372  1
  H  H718  1  0.82291231  0.19285836  0.32157636  1
  C  C719  1  0.87772414  0.10143506  0.35490771  1
  H  H720  1  0.68797341  0.10615931  0.60716653  1
  H  H721  1  0.71677471  0.04270412  0.65416495  1
  H  H722  1  0.60107112  0.14268655  0.61031562  1
  C  C723  1  0.65569278  0.09488117  0.57719456  1
  C  C724  1  0.60759708  0.11337090  0.57936090  1
  C  C725  1  0.66232602  0.05433566  0.53891768  1
  C  C726  1  0.71708387  0.04144131  0.54398010  1
  C  C727  1  0.57079792  0.09465978  0.53990875  1
  O  O728  1  0.62776014  0.18320190  0.70694270  1
  C  C729  1  0.62436467  0.22029562  0.72361676  1
  C  C730  1  0.62724656  0.22778594  0.95986928  1
  C  C731  1  0.52074429  0.11671482  0.54401297  1
  C  C732  1  0.74106329  0.03700477  0.60849862  1
  C  C733  1  0.62546335  0.18300434  0.98417771  1
  C  C734  1  0.53479294  0.23471801  0.98843263  1
  O  O735  1  0.51766050  0.14573948  0.58864818  1
  H  H736  1  0.53265235  0.13306651  0.70654766  1
  H  H737  1  0.53887988  0.04549872  0.72931140  1
  H  H738  1  0.65850696  0.16014746  0.97568986  1
  H  H739  1  0.66171502  0.24296851  0.93937423  1
  C  C740  1  0.51013606  0.06744673  0.75342329  1
  C  C741  1  0.50718549  0.11327945  0.73965604  1
  O  O742  1  0.73016137  0.18140694  0.97848045  1
  H  H743  1  0.65227153  0.17979003  0.50434118  1
  O  O744  1  0.88716670  0.02335125  0.98545427  1
  C  C745  1  0.94714469  0.02086473  0.63498034  1
  H  H746  1  0.95247067  0.04172718  0.67795250  1
  C  C747  1  0.84623271  0.07608124  0.69080929  1
  H  H748  1  0.98148695  0.17766242  0.66144711  1
  H  H749  1  0.86397123  0.02717684  0.55173603  1
  H  H750  1  0.97024457  0.01237989  0.88700947  1
  O  O751  1  0.94486117  0.19896479  0.84026783  1
  C  C752  1  0.98990877  0.17396821  0.54729295  1
  C  C753  1  0.98033116  0.04491995  0.86858440  1
  C  C754  1  0.97332176  0.15748065  0.61387485  1
  O  O755  1  0.83105375  0.23043805  0.57777524  1
  C  C756  1  0.94006617  0.01283799  0.50758592  1
  O  O757  1  0.90662590  0.16592466  0.92330371  1
  H  H758  1  0.76612386  0.02817711  0.84172726  1
  H  H759  1  0.87868905  0.11942352  0.76062022  1
  H  H760  1  0.86540454  0.09089075  0.64789921  1
  C  C761  1  0.93633465  0.16621289  0.87190603  1
  C  C762  1  0.95145442  0.08790334  0.56013054  1
  C  C763  1  0.82331239  0.03119022  0.54949248  1
  C  C764  1  0.79297469  0.03230937  0.61040811  1
  C  C765  1  0.95964777  0.11380228  0.61968179  1
  C  C766  1  0.85128998  0.09333006  0.75557789  1
  C  C767  1  0.79774495  0.23819590  0.96832747  1
  H  H768  1  0.92588940  0.08198448  0.93255400  1
  H  H769  1  0.77336134  0.24092945  0.79492629  1
  C  C770  1  0.96450354  0.12284504  0.85382587  1
  Zn  Zn771  1  0.80654378  0.16006772  0.89104292  1
  H  H772  1  0.95641637  0.09674525  0.67081786  1
  O  O773  1  0.79595193  0.21640691  0.79581858  1
  C  C774  1  0.78666238  0.04127655  0.79741875  1
  H  H775  1  0.81811508  0.22481317  0.76054526  1
  C  C776  1  0.84098741  0.24721658  0.92418738  1
  C  C777  1  0.76958297  0.19672686  0.96330104  1
  C  C778  1  0.81195827  0.04102081  0.68226725  1
  C  C779  1  0.95386028  0.08339573  0.88858527  1
  O  O780  1  0.82953773  0.09382165  0.86869971  1
  C  C781  1  0.94557810  0.03922088  0.56824365  1
  C  C782  1  0.82186355  0.07732975  0.80921807  1
  C  C783  1  0.78107166  0.02218277  0.73287857  1
  H  H784  1  0.85399366  0.22243294  0.88322956  1
  C  C785  1  0.62834737  0.44755808  0.42031514  1
  C  C786  1  0.55343665  0.43067442  0.35501315  1
  H  H787  1  0.63040554  0.43413265  0.31206653  1
  C  C788  1  0.60581420  0.43873002  0.35576415  1
  C  C789  1  0.68511850  0.45339780  0.40614691  1
  C  C790  1  0.52683291  0.42182039  0.41612003  1
  C  C791  1  0.52775961  0.42334457  0.28522901  1
  C  C792  1  0.54507823  0.38537124  0.24842042  1
  H  H793  1  0.56859364  0.36061537  0.26987316  1
  O  O794  1  0.64747699  0.40176527  0.09383426  1
  C  C795  1  0.67961287  0.40096680  0.05298018  1
  H  H796  1  0.69887322  0.38269215  0.43732451  1
  C  C797  1  0.72536040  0.42368433  0.02745314  1
  C  C798  1  0.71708131  0.41494769  0.41845724  1
  C  C799  1  0.53656447  0.38183902  0.17864850  1
  H  H800  1  0.55066343  0.35262399  0.15050441  1
  C  C801  1  0.55259925  0.42581244  0.47961981  1
  C  C802  1  0.60298151  0.44192461  0.48328445  1
  C  C803  1  0.70559264  0.49453980  0.38217183  1
  O  O804  1  0.51341122  0.37760814  0.04186552  1
  H  H805  1  0.73298483  0.47620834  0.10976182  1
  Na  Na806  1  0.56487921  0.47274459  0.02555756  1
  H  H807  1  0.57675820  0.49399927  0.25886890  1
  C  C808  1  0.50511866  0.41232470  0.14607024  1
  C  C809  1  0.74666445  0.46238547  0.06098699  1
  O  O810  1  0.61647612  0.29409396  0.49548034  1
  O  O811  1  0.86052797  0.49374774  0.33885998  1
  O  O812  1  0.86733544  0.42371248  0.36792065  1
  O  O813  1  0.98269770  0.45260962  0.40595157  1
  C  C814  1  0.81498969  0.30765335  0.03194883  1
  Zn  Zn815  1  0.91827031  0.40669061  0.44533808  1
  C  C816  1  0.78652281  0.26797377  0.02628803  1
  C  C817  1  0.94593822  0.43153827  0.04646532  1
  H  H818  1  0.88210622  0.43537348  0.25163630  1
  C  C819  1  0.95964200  0.45148745  0.26506454  1
  C  C820  1  0.78801280  0.45655571  0.37653252  1
  C  C821  1  0.84599656  0.46548917  0.15756550  1
  H  H822  1  0.82318585  0.28249388  0.13964393  1
  H  H823  1  0.96595423  0.46202344  0.06716409  1
  C  C824  1  0.75602068  0.49119756  0.36087786  1
  C  C825  1  0.89269314  0.28269380  0.35865835  1
  C  C826  1  0.98269653  0.37456338  0.19469023  1
  C  C827  1  0.98806707  0.33058731  0.16081908  1
  O  O828  1  0.95390796  0.28125121  0.45045751  1
  H  H829  1  0.83320779  0.31887029  0.21779225  1
  C  C830  1  0.89362379  0.42851617  0.05417408  1
  C  C831  1  0.79130554  0.47654391  0.03102849  1
  C  C832  1  0.87757438  0.31141524  0.30701324  1
  H  H833  1  0.81687568  0.43801553  0.16651787  1
  C  C834  1  0.84209064  0.29783520  0.25995716  1
  C  C835  1  0.91989904  0.42473871  0.24096828  1
  C  C836  1  0.93413317  0.30237400  0.40024586  1
  O  O837  1  0.94634833  0.30970917  0.14871245  1
  C  C838  1  0.96963051  0.39613811  0.01238604  1
  C  C839  1  0.88013480  0.46719547  0.10269051  1
  C  C840  1  0.86191221  0.39443042  0.03147828  1
  C  C841  1  0.76816729  0.41624802  0.40394409  1
  O  O842  1  0.94554160  0.34002019  0.38314772  1
  C  C843  1  0.84146564  0.45798457  0.35678168  1
  C  C844  1  0.82225574  0.25469828  0.26499683  1
  H  H845  1  0.89551509  0.34419802  0.30349417  1
  H  H846  1  0.81943894  0.39452122  0.04232384  1
  H  H847  1  0.80905249  0.32889568  0.07722159  1
  H  H848  1  0.78999188  0.38621901  0.41296566  1
  H  H849  1  0.90271791  0.36720247  0.18216741  1
  C  C850  1  0.93223657  0.38762342  0.20254118  1
  H  H851  1  0.78174675  0.49948524  0.46357280  1
  C  C852  1  0.75907655  0.25066229  0.08899874  1
  C  C853  1  0.78989825  0.26285881  0.14745394  1
  C  C854  1  0.88851955  0.35791950  0.00506942  1
  H  H855  1  0.65811704  0.44031914  0.79312722  1
  C  C856  1  0.69886080  0.43654016  0.78866646  1
  C  C857  1  0.71313427  0.32128579  0.70640965  1
  C  C858  1  0.69058840  0.35549744  0.74620191  1
  C  C859  1  0.72071378  0.39617318  0.76298134  1
  H  H860  1  0.65321263  0.39829833  0.65223112  1
  C  C861  1  0.67290650  0.42747038  0.63115143  1
  C  C862  1  0.64090449  0.34779418  0.77395490  1
  C  C863  1  0.56100182  0.44475775  0.78440840  1
  C  C864  1  0.59157338  0.43973307  0.72907963  1
  H  H865  1  0.59677840  0.40681033  0.70518642  1
  H  H866  1  0.61921614  0.37307283  0.80202377  1
  C  C867  1  0.71940922  0.42335846  0.59754849  1
  C  C868  1  0.62135634  0.30708970  0.76439396  1
  H  H869  1  0.53938795  0.41748338  0.81096463  1
  O  O870  1  0.63358153  0.31319944  0.92608357  1
  C  C871  1  0.72700144  0.33756743  0.57025555  1
  C  C872  1  0.52507814  0.40567577  0.53835001  1
  C  C873  1  0.52090121  0.43609945  0.59726129  1
  H  H874  1  0.53152590  0.47212756  0.59576312  1
  C  C875  1  0.73262702  0.46922912  0.81008512  1
  C  C876  1  0.59127922  0.29776116  0.94105528  1
  C  C877  1  0.74380199  0.46111480  0.56837414  1
  H  H878  1  0.62176087  0.44652711  0.53081210  1
  O  O879  1  0.55492102  0.32396149  0.94010509  1
  C  C880  1  0.69418016  0.27804940  0.69807145  1
  C  C881  1  0.65524918  0.47213801  0.64005249  1
  C  C882  1  0.61710221  0.47490629  0.69708607  1
  H  H883  1  0.74928255  0.32834297  0.67885315  1
  C  C884  1  0.74565105  0.40347092  0.96415672  1
  Zn  Zn885  1  0.68576847  0.35778952  0.96508353  1
  H  H886  1  0.68627503  0.33514835  0.55564909  1
  C  C887  1  0.64500817  0.26969036  0.72956518  1
  C  C888  1  0.50391629  0.36183731  0.54048826  1
  H  H889  1  0.74515565  0.26618879  0.55048245  1
  H  H890  1  0.71600365  0.25395945  0.67156023  1
  Zn  Zn891  1  0.56795548  0.25744930  0.77804557  1
  O  O892  1  0.50629073  0.45743477  0.90365414  1
  H  H893  1  0.72850751  0.48445706  0.94677636  1
  H  H894  1  0.50234296  0.25709608  0.99164360  1
  C  C895  1  0.55663322  0.48758769  0.81286754  1
  C  C896  1  0.52211553  0.49138945  0.87192250  1
  C  C897  1  0.58298924  0.25130301  0.96464473  1
  C  C898  1  0.59377188  0.31213740  0.52989487  1
  H  H899  1  0.63668774  0.48720829  0.92462964  1
  O  O900  1  0.61569729  0.48952126  0.96331025  1
  C  C901  1  0.74630850  0.37879539  0.59196456  1
  H  H902  1  0.50777220  0.44188561  0.69918066  1
  C  C903  1  0.50524010  0.41835875  0.65758467  1
  H  H904  1  0.90133188  0.38648025  0.55328182  1
  C  C905  1  0.75761442  0.29925657  0.56966984  1
  H  H906  1  0.98978712  0.49528600  0.51935075  1
  H  H907  1  0.81026234  0.49784141  0.80756751  1
  C  C908  1  0.94101260  0.35853223  0.99245646  1
  C  C909  1  0.80634259  0.46056446  0.96547353  1
  O  O910  1  0.84938372  0.47875905  0.54771446  1
  C  C911  1  0.80771699  0.30644339  0.59012580  1
  H  H912  1  0.79679793  0.41051152  0.87887985  1
  H  H913  1  0.93732880  0.32703950  0.81473802  1
  C  C914  1  0.77204387  0.38817327  0.76096944  1
  H  H915  1  0.95784062  0.32913767  0.96741019  1
  C  C916  1  0.92047545  0.35439779  0.78699409  1
  H  H917  1  0.94426663  0.41651989  0.64101412  1
  H  H918  1  0.80723481  0.41474766  0.64429129  1
  H  H919  1  0.78043151  0.45573594  0.54459913  1
  C  C920  1  0.85153069  0.48294906  0.93736249  1
  H  H921  1  0.89767319  0.42405803  0.90997137  1
  C  C922  1  0.85692972  0.41272616  0.76676902  1
  C  C923  1  0.80230729  0.42672520  0.77489153  1
  H  H924  1  0.94760324  0.43084946  0.79123805  1
  C  C925  1  0.98424308  0.46134862  0.88046102  1
  H  H926  1  0.86062986  0.36595591  0.85519759  1
  C  C927  1  0.82701844  0.34703362  0.61236170  1
  C  C928  1  0.98156574  0.34002810  0.69425857  1
  C  C929  1  0.84454232  0.26647468  0.59501910  1
  C  C930  1  0.93807692  0.36600912  0.72219214  1
  C  C931  1  0.78563001  0.46836684  0.79950998  1
  H  H932  1  0.86603759  0.34594577  0.63056750  1
  C  C933  1  0.79595709  0.38373969  0.61922854  1
  O  O934  1  0.90294837  0.36200345  0.52043444  1
  H  H935  1  0.78838417  0.35720081  0.74448131  1
  C  C936  1  0.98091123  0.43287347  0.82355980  1
  C  C937  1  0.89494656  0.48441953  0.54305443  1
  Zn  Zn938  1  0.94653420  0.30638740  0.55379271  1
  C  C939  1  0.92271990  0.40346271  0.68469204  1
  C  C940  1  0.86434803  0.28883861  0.93022204  1
  H  H941  1  0.86817101  0.45628225  0.67250833  1
  C  C942  1  0.85458296  0.31763137  0.98644295  1
  C  C943  1  0.89484138  0.46042534  0.91680925  1
  O  O944  1  0.88974057  0.27381225  0.61173971  1
  C  C945  1  0.93825630  0.48679333  0.90430082  1
  H  H946  1  0.89338786  0.29736989  0.89635859  1
  C  C947  1  0.88160446  0.42779392  0.70777067  1
  C  C948  1  0.78618510  0.42044248  0.93149727  1
  O  O949  1  0.99158868  0.34149803  0.63172396  1
  C  C950  1  0.87713734  0.37709210  0.80669363  1
  O  O951  1  0.92483474  0.45158962  0.53569497  1
  H  H952  1  0.60823272  0.56192295  0.44365015  1
  C  C953  1  0.62123439  0.59450378  0.46346795  1
  C  C954  1  0.66155353  0.61623459  0.43209728  1
  C  C955  1  0.57730481  0.54297538  0.15397117  1
  C  C956  1  0.54930865  0.55682258  0.21880412  1
  Zn  Zn957  1  0.61297254  0.63203862  0.09485854  1
  C  C958  1  0.57511920  0.70468599  0.39071957  1
  O  O959  1  0.61118983  0.66703925  0.18143692  1
  C  C960  1  0.68255039  0.60287827  0.36432523  1
  H  H961  1  0.61055332  0.65667053  0.32296576  1
  C  C962  1  0.59310384  0.70403058  0.20156754  1
  C  C963  1  0.58120863  0.71828088  0.27166450  1
  C  C964  1  0.59143744  0.69076598  0.32853453  1
  H  H965  1  0.58153125  0.68174018  0.43311995  1
  O  O966  1  0.57779988  0.56757666  0.10172311  1
  C  C967  1  0.71703798  0.58299730  0.23465375  1
  C  C968  1  0.65077586  0.58078616  0.31752312  1
  C  C969  1  0.66618416  0.57105633  0.25347135  1
  H  H970  1  0.70932616  0.67595484  0.42857056  1
  H  H971  1  0.61140761  0.57585197  0.33037554  1
  H  H972  1  0.64081747  0.55652780  0.21891876  1
  C  C973  1  0.68279487  0.65698287  0.45676596  1
  C  C974  1  0.73257642  0.61315426  0.34729686  1
  C  C975  1  0.53814393  0.53516219  0.33778510  1
  O  O976  1  0.54612990  0.66450012  0.03894833  1
  O  O977  1  0.57940318  0.72917407  0.15246252  1
  H  H978  1  0.52399173  0.56834192  0.45198325  1
  C  C979  1  0.52773381  0.59858926  0.22596580  1
  C  C980  1  0.55824903  0.52643008  0.27107054  1
  C  C981  1  0.73551212  0.56999702  0.16794442  1
  H  H982  1  0.52279068  0.61972505  0.18051534  1
  O  O983  1  0.66112826  0.62131751  0.01769507  1
  C  C984  1  0.74918018  0.60603576  0.28300736  1
  C  C985  1  0.50866280  0.61055824  0.29150239  1
  H  H986  1  0.51171275  0.65449805  0.05015692  1
  C  C987  1  0.51471750  0.57654357  0.33857161  1
  H  H988  1  0.67835568  0.52309019  0.37231305  1
  H  H989  1  0.53497744  0.50916107  0.38041271  1
  H  H990  1  0.70414055  0.55387734  0.00895534  1
  O  O991  1  0.74857179  0.55712512  0.11501440  1
  O  O992  1  0.59460304  0.50596669  0.15242500  1
  Zn  Zn993  1  0.51198018  0.71897675  0.10464494  1
  C  C994  1  0.55511593  0.74858470  0.39939949  1
  H  H995  1  0.75789888  0.62825849  0.38689892  1
  H  H996  1  0.92854094  0.50319318  0.03363888  1
  H  H997  1  0.81487697  0.50236626  0.05429171  1
  C  C998  1  0.90559186  0.50561188  0.07984873  1
  C  C999  1  0.77679345  0.53571584  0.47987277  1
  H  H1000  1  0.77286262  0.52099117  0.33749687  1
  H  H1001  1  0.84050928  0.58940616  0.05359637  1
  H  H1002  1  0.93841353  0.56530934  0.43008880  1
  O  O1003  1  0.86374290  0.58278085  0.27820505  1
  Zn  Zn1004  1  0.94430202  0.50478215  0.32483596  1
  C  C1005  1  0.99982368  0.67304783  0.31709815  1
  O  O1006  1  0.99867946  0.71114345  0.28722275  1
  C  C1007  1  0.91349594  0.73215116  0.06780290  1
  Zn  Zn1008  1  0.90847518  0.61980270  0.35455956  1
  C  C1009  1  0.87230093  0.65527371  0.05942943  1
  O  O1010  1  0.84532765  0.64992240  0.38756380  1
  H  H1011  1  0.85711194  0.66319914  0.11010786  1
  C  C1012  1  0.87309364  0.54187200  0.17540649  1
  C  C1013  1  0.88010496  0.58430164  0.21876825  1
  C  C1014  1  0.86618947  0.61290939  0.03065858  1
  O  O1015  1  0.81250668  0.68914354  0.46962195  1
  C  C1016  1  0.90481243  0.54470300  0.11940002  1
  H  H1017  1  0.92486186  0.57595541  0.10259217  1
  O  O1018  1  0.96570621  0.66198931  0.35779315  1
  H  H1019  1  0.83127495  0.56163004  0.40491253  1
  C  C1020  1  0.90694785  0.68633997  0.03255442  1
  C  C1021  1  0.82209214  0.65411342  0.44427838  1
  O  O1022  1  0.94376936  0.56330187  0.38235756  1
  C  C1023  1  0.79831065  0.61228234  0.47459325  1
  O  O1024  1  0.89391242  0.73921004  0.12103832  1
  H  H1025  1  0.78695864  0.61716926  0.26775944  1
  O  O1026  1  0.89794606  0.61770521  0.19392457  1
  C  C1027  1  0.80407955  0.56906031  0.44806676  1
  C  C1028  1  0.84350239  0.50527291  0.19273135  1
  H  H1029  1  0.81720418  0.51066019  0.23548763  1
  H  H1030  1  0.56803888  0.60871043  0.65818579  1
  C  C1031  1  0.54487584  0.58956834  0.62366690  1
  C  C1032  1  0.68394113  0.58752089  0.91526247  1
  C  C1033  1  0.68518993  0.58840801  0.84477226  1
  H  H1034  1  0.67176396  0.61712417  0.81647368  1
  H  H1035  1  0.59975401  0.67693503  0.58587148  1
  C  C1036  1  0.70039961  0.55188967  0.95354667  1
  O  O1037  1  0.63712383  0.65585757  0.92525595  1
  C  C1038  1  0.65711035  0.62330523  0.95373712  1
  C  C1039  1  0.70053606  0.55067113  0.80810578  1
  C  C1040  1  0.58523643  0.52363907  0.78890122  1
  H  H1041  1  0.63701110  0.54453215  0.70837802  1
  H  H1042  1  0.57563028  0.68967455  0.78100420  1
  C  C1043  1  0.54557237  0.69132239  0.74368591  1
  H  H1044  1  0.65521544  0.54142733  0.60080958  1
  C  C1045  1  0.54761390  0.71843385  0.68520901  1
  Zn  Zn1046  1  0.55870953  0.67238189  0.93529235  1
  C  C1047  1  0.61243095  0.51714212  0.72911229  1
  C  C1048  1  0.61613655  0.65700113  0.54553454  1
  C  C1049  1  0.55312324  0.59082024  0.55211614  1
  O  O1050  1  0.65807431  0.66928726  0.73483802  1
  C  C1051  1  0.66617770  0.63494383  0.70740834  1
  C  C1052  1  0.67445282  0.50981824  0.60531706  1
  O  O1053  1  0.67219884  0.60053211  0.68098580  1
  H  H1054  1  0.71225449  0.59236955  0.59721506  1
  C  C1055  1  0.74303357  0.54177058  0.53241884  1
  H  H1056  1  0.58932939  0.55447863  0.81734856  1
  C  C1057  1  0.67087318  0.72407076  0.53742926  1
  H  H1058  1  0.67069630  0.70516551  0.64647071  1
  C  C1059  1  0.67067844  0.73296825  0.60869872  1
  C  C1060  1  0.71810950  0.50261505  0.56759120  1
  C  C1061  1  0.52728386  0.73634116  0.52031246  1
  C  C1062  1  0.71860932  0.51449348  0.91836040  1
  H  H1063  1  0.70178964  0.54842413  0.75058140  1
  O  O1064  1  0.52698254  0.62920864  0.85876837  1
  C  C1065  1  0.71533353  0.51341356  0.84627236  1
  C  C1066  1  0.50242093  0.66462097  0.75110232  1
  C  C1067  1  0.73751323  0.58665683  0.55579793  1
  C  C1068  1  0.50514192  0.72159513  0.64201068  1
  C  C1069  1  0.65891381  0.67728546  0.51212283  1
  C  C1070  1  0.59747937  0.61719586  0.51988425  1
  C  C1071  1  0.52070803  0.56614374  0.50716636  1
  C  C1072  1  0.50811387  0.56318084  0.65062571  1
  O  O1073  1  0.51557797  0.52962832  0.89642470  1
  O  O1074  1  0.53320530  0.73310650  0.92411132  1
  H  H1075  1  0.58448552  0.73672671  0.67284114  1
  H  H1076  1  0.50646303  0.74142556  0.81307105  1
  H  H1077  1  0.52585036  0.70028452  0.51170308  1
  H  H1078  1  0.77048443  0.66018208  0.88614473  1
  O  O1079  1  0.78030671  0.63254208  0.86173897  1
  C  C1080  1  0.99845742  0.56856921  0.53403537  1
  C  C1081  1  0.92166818  0.52974908  0.54455956  1
  C  C1082  1  0.93836976  0.53324975  0.92261144  1
  C  C1083  1  0.76618592  0.62096288  0.52956105  1
  C  C1084  1  0.89470863  0.55563861  0.94526184  1
  H  H1085  1  0.85212236  0.56725102  0.54992727  1
  C  C1086  1  0.97276214  0.52813280  0.53174369  1
  C  C1087  1  0.84959503  0.53025294  0.94968612  1
  C  C1088  1  0.89446628  0.60434724  0.97095358  1
  H  H1089  1  0.95578855  0.70239483  0.94720580  1
  H  H1090  1  0.89499814  0.63934271  0.55731977  1
  H  H1091  1  0.81538846  0.54525974  0.96791802  1
  H  H1092  1  0.97233022  0.55302518  0.92279672  1
  H  H1093  1  0.75965928  0.65663420  0.54289196  1
  C  C1094  1  0.91622535  0.60930960  0.55081493  1
  C  C1095  1  0.92618687  0.63669182  0.94015258  1
  H  H1096  1  0.76452666  0.60989510  0.88670944  1
  O  O1097  1  0.77000406  0.71710941  0.92049993  1
  C  C1098  1  0.89263520  0.56764255  0.54889128  1
  C  C1099  1  0.96834469  0.60774442  0.54402299  1
  C  C1100  1  0.92823498  0.67917397  0.96864061  1
  H  H1101  1  0.95468800  0.62724318  0.90169235  1
  H  H1102  1  0.98427052  0.64425681  0.65621370  1
  H  H1103  1  0.80244059  0.71898631  0.90404072  1
  H  H1104  1  0.76995572  0.71567088  0.96812321  1
  C  C1105  1  0.56523004  0.92164742  0.41721403  1
  C  C1106  1  0.60520864  0.90295407  0.36949787  1
  C  C1107  1  0.59988446  0.89849807  0.29921870  1
  C  C1108  1  0.64154722  0.88307299  0.25814889  1
  C  C1109  1  0.65140531  0.89213845  0.40621553  1
  C  C1110  1  0.68939328  0.87295193  0.36574650  1
  H  H1111  1  0.56420704  0.90637530  0.27494842  1
  C  C1112  1  0.63777832  0.88708147  0.18088831  1
  C  C1113  1  0.68230112  0.90027752  0.14790057  1
  C  C1114  1  0.68412866  0.86883160  0.29192539  1
  C  C1115  1  0.58867400  0.88616873  0.14947414  1
  H  H1116  1  0.55452146  0.88073639  0.17810504  1
  H  H1117  1  0.71647394  0.86067046  0.26043507  1
  H  H1118  1  0.71799182  0.90500094  0.17891289  1
  C  C1119  1  0.58921401  0.90199965  0.08282144  1
  C  C1120  1  0.68159539  0.91305435  0.07945603  1
  H  H1121  1  0.58092732  0.83235301  0.43822692  1
  H  H1122  1  0.54145786  0.81323124  0.34542003  1
  H  H1123  1  0.55742612  0.78187963  0.23000398  1
  C  C1124  1  0.55536134  0.77919729  0.34172910  1
  H  H1125  1  0.71602690  0.92298447  0.05261485  1
  H  H1126  1  0.64915639  0.95916709  0.22310733  1
  H  H1127  1  0.55478607  0.90568924  0.05394421  1
  C  C1128  1  0.63442730  0.91657119  0.04806717  1
  H  H1129  1  0.53213166  0.81676474  0.03536844  1
  C  C1130  1  0.55752599  0.81223518  0.47626117  1
  C  C1131  1  0.54319994  0.76586516  0.46595034  1
  C  C1132  1  0.73825389  0.85470594  0.39213345  1
  C  C1133  1  0.51484011  0.91813235  0.39966313  1
  H  H1134  1  0.74243118  0.92079575  0.28640694  1
  H  H1135  1  0.65618381  0.89968067  0.46131281  1
  C  C1136  1  0.58154490  0.94346616  0.47870592  1
  H  H1137  1  0.67152297  0.83433483  0.47483915  1
  C  C1138  1  0.56384325  0.76236375  0.27705168  1
  H  H1139  1  0.73707077  0.80056404  0.31376234  1
  C  C1140  1  0.50631621  0.84424585  0.02728541  1
  H  H1141  1  0.74231906  0.89861468  0.47862722  1
  H  H1142  1  0.66858989  0.75304231  0.43414345  1
  C  C1143  1  0.67250177  0.75982754  0.48838705  1
  C  C1144  1  0.74588680  0.98685490  0.23254616  1
  H  H1145  1  0.63024599  0.99470398  0.03784553  1
  C  C1146  1  0.54278569  0.99518075  0.19195690  1
  H  H1147  1  0.50437126  0.90045913  0.35285748  1
  C  C1148  1  0.65191459  0.98978715  0.25468863  1
  C  C1149  1  0.51812993  0.99369959  0.31571783  1
  H  H1150  1  0.52680863  0.99674546  0.37165331  1
  C  C1151  1  0.55615844  0.99569442  0.26336644  1
  H  H1152  1  0.62225818  0.94599299  0.48714331  1
  Zn  Zn1153  1  0.97022185  0.99695189  0.18065859  1
  C  C1154  1  0.75629921  0.81497199  0.35765247  1
  C  C1155  1  0.99185151  0.83798615  0.31327920  1
  H  H1156  1  0.91504834  0.89981030  0.29357733  1
  C  C1157  1  0.80532052  0.85470896  0.47729911  1
  O  O1158  1  0.91468765  0.95530431  0.11979885  1
  H  H1159  1  0.97328390  0.84380814  0.04998132  1
  C  C1160  1  0.87679706  0.79934700  0.45681198  1
  C  C1161  1  0.80245454  0.79900864  0.38117730  1
  Zn  Zn1162  1  0.96623518  0.86877665  0.15936228  1
  C  C1163  1  0.88268376  0.93350864  0.15767093  1
  C  C1164  1  0.81987761  0.99769464  0.16275940  1
  O  O1165  1  0.99953845  0.84337322  0.07990906  1
  Na  Na1166  1  0.98506574  0.75601720  0.42740914  1
  C  C1167  1  0.76355687  0.94330315  0.25162501  1
  H  H1168  1  0.89632575  0.96068217  0.37324743  1
  H  H1169  1  0.80451528  0.98698787  0.37694423  1
  H  H1170  1  0.81878364  0.89232527  0.23219578  1
  C  C1171  1  0.94584325  0.93796579  0.45339721  1
  C  C1172  1  0.97233211  0.87270927  0.35935767  1
  O  O1173  1  0.93775389  0.76194605  0.03650297  1
  C  C1174  1  0.99827311  0.87835586  0.42165147  1
  C  C1175  1  0.83433990  0.95360530  0.17634456  1
  H  H1176  1  0.82102730  0.76920816  0.35611751  1
  C  C1177  1  0.92283741  0.93591117  0.38839237  1
  C  C1178  1  0.93428424  0.90277264  0.34121511  1
  O  O1179  1  0.89098214  0.89422930  0.17442162  1
  O  O1180  1  0.97087042  0.82847980  0.25516430  1
  C  C1181  1  0.82590221  0.82023570  0.43730841  1
  Zn  Zn1182  1  0.92284301  0.96540205  0.01081707  1
  O  O1183  1  0.89539059  0.76632120  0.42890897  1
  C  C1184  1  0.80595369  0.92760392  0.22262266  1
  C  C1185  1  0.76084371  0.87348135  0.45198311  1
  C  C1186  1  0.98684873  0.91045411  0.46962775  1
  O  O1187  1  0.66625171  0.92997629  0.93279529  1
  O  O1188  1  0.58212707  0.94182436  0.94690164  1
  H  H1189  1  0.59453894  0.95054515  0.90201396  1
  C  C1190  1  0.67262594  0.80978886  0.57953016  1
  C  C1191  1  0.67041474  0.85770835  0.60848675  1
  H  H1192  1  0.53878006  0.86386952  0.93606644  1
  C  C1193  1  0.54519293  0.82255264  0.53979080  1
  H  H1194  1  0.52905196  0.91469682  0.63553569  1
  H  H1195  1  0.67221267  0.78754558  0.68601000  1
  C  C1196  1  0.67067394  0.77724130  0.63075740  1
  C  C1197  1  0.52530748  0.80228085  0.59526802  1
  C  C1198  1  0.54735642  0.96411017  0.52001074  1
  O  O1199  1  0.67203260  0.88804764  0.56687804  1
  O  O1200  1  0.66801071  0.86533658  0.66897980  1
  C  C1201  1  0.63233240  0.92853708  0.97227167  1
  C  C1202  1  0.50628639  0.86950068  0.96866496  1
  H  H1203  1  0.51634666  0.82095688  0.64311027  1
  C  C1204  1  0.51712152  0.75331253  0.58476586  1
  H  H1205  1  0.55873667  0.98332980  0.56409395  1
  C  C1206  1  0.67155311  0.80443553  0.50895882  1
  H  H1207  1  0.70229145  0.99265113  0.99279951  1
  H  H1208  1  0.55214349  0.97966989  0.99929534  1
  H  H1209  1  0.88736533  0.99611889  0.74486929  1
  H  H1210  1  0.79591558  0.98719167  0.97580748  1
  H  H1211  1  0.75064941  0.99737884  0.71925377  1
  H  H1212  1  0.98444853  0.75504992  0.71861428  1
  H  H1213  1  0.89035876  0.95914894  0.86499565  1
  H  H1214  1  0.93166598  0.91123863  0.58884514  1
  C  C1215  1  0.97794649  0.91225034  0.72407392  1
  C  C1216  1  0.94514343  0.91187614  0.83732711  1
  O  O1217  1  0.96446235  0.85604562  0.91783625  1
  H  H1218  1  0.99963438  0.86437028  0.80391196  1
  C  C1219  1  0.93781183  0.94664899  0.58345745  1
  O  O1220  1  0.91224576  0.90934765  0.95242080  1
  C  C1221  1  0.94182665  0.89037981  0.90830967  1
  H  H1222  1  0.99895466  0.79657313  0.59078085  1
  C  C1223  1  0.94715249  0.97421485  0.64048856  1
  C  C1224  1  0.97774153  0.89362714  0.78879475  1
  C  C1225  1  0.91398217  0.94720882  0.82383829  1
  C  C1226  1  0.94613787  0.94986828  0.71091524  1
  O  O1227  1  0.99393148  0.79827447  0.54471573  1
  C  C1228  1  0.91452806  0.96938946  0.75979677  1
  C  C1229  1  0.93679460  0.96661345  0.51596573  1
  H  H1230  1  0.95800302  0.80661581  0.53338713  1
  H  H1231  1  0.99506187  0.76537510  0.84962924  1
  O  O1232  1  0.89916224  0.81924985  0.50415316  1
  H  H1233  1  0.82529535  0.86561164  0.52663109  1
