# generated using pymatgen
data_ZnH21C27N7Cl
_symmetry_space_group_name_H-M   'P 1'
_cell_length_a   22.34646771
_cell_length_b   27.44879870
_cell_length_c   15.95150782
_cell_angle_alpha   90.00000000
_cell_angle_beta   90.00000000
_cell_angle_gamma   90.00000000
_symmetry_Int_Tables_number   1
_chemical_formula_structural   ZnH21C27N7Cl
_chemical_formula_sum   'Zn16 H336 C432 N112 Cl16'
_cell_volume   9784.39478910
_cell_formula_units_Z   16
loop_
 _symmetry_equiv_pos_site_id
 _symmetry_equiv_pos_as_xyz
  1  'x, y, z'
loop_
 _atom_site_type_symbol
 _atom_site_label
 _atom_site_symmetry_multiplicity
 _atom_site_fract_x
 _atom_site_fract_y
 _atom_site_fract_z
 _atom_site_occupancy
  C  C0  1  0.02875238  0.14082907  0.07675355  1
  Cl  Cl1  1  0.08193185  0.13342776  0.16897418  1
  H  H2  1  0.12324893  0.20648113  0.10126834  1
  H  H3  1  0.20717180  0.21568240  0.15684972  1
  C  C4  1  0.22277856  0.19791359  0.10030594  1
  H  H5  1  0.07324171  0.05155200  0.23039119  1
  H  H6  1  0.21415116  0.07808625  0.42978562  1
  N  N7  1  0.05556851  0.13865694  0.00617459  1
  H  H8  1  0.23122145  0.12267346  0.14976086  1
  C  C9  1  0.23734091  0.14845477  0.09635232  1
  C  C10  1  0.23082292  0.22693922  0.02599531  1
  C  C11  1  0.08879150  0.01379941  0.23866760  1
  H  H12  1  0.24358408  0.05441540  0.12902716  1
  H  H13  1  0.05426892  0.22171109  0.22037358  1
  Cl  Cl14  1  0.18120386  0.16203688  0.47614539  1
  H  H15  1  0.00041194  0.05927750  0.37230018  1
  C  C16  1  0.11825887  0.24333707  0.12495653  1
  H  H17  1  0.01297039  0.24087162  0.33525690  1
  H  H18  1  0.16723118  0.01085620  0.32992822  1
  H  H19  1  0.02916342  0.09449361  0.48652629  1
  C  C20  1  0.01003873  0.13048681  0.49162882  1
  C  C21  1  0.11027075  0.34487936  0.17789026  1
  H  H22  1  0.14883675  0.35330442  0.45058960  1
  H  H23  1  0.17402517  0.44240386  0.32271998  1
  N  N24  1  0.19503509  0.27016034  0.02521305  1
  H  H25  1  0.20249886  0.43108380  0.00208950  1
  H  H26  1  0.23301759  0.30186364  0.47825325  1
  C  C27  1  0.21086555  0.41588996  0.33785815  1
  H  H28  1  0.21666901  0.27354315  0.29675326  1
  C  C29  1  0.14782804  0.33215201  0.11138765  1
  C  C30  1  0.15393450  0.28250521  0.08841083  1
  H  H31  1  0.04549568  0.39184724  0.28455222  1
  C  C32  1  0.08340986  0.25373808  0.19392851  1
  C  C33  1  0.17441450  0.44651030  0.05369480  1
  C  C34  1  0.03414015  0.35932291  0.32167474  1
  H  H35  1  0.18611976  0.33953289  0.29834024  1
  N  N36  1  0.19675920  0.44656934  0.12877963  1
  N  N37  1  0.04598972  0.31326266  0.29369397  1
  H  H38  1  0.10628325  0.38077353  0.20308332  1
  C  C39  1  0.21685226  0.36590150  0.31978941  1
  C  C40  1  0.01292919  0.28054427  0.34434918  1
  H  H41  1  0.17209270  0.35994815  0.07683925  1
  C  C42  1  0.07922127  0.30325736  0.21980575  1
  H  H43  1  0.08710460  0.40631565  0.43870919  1
  C  C44  1  0.12411472  0.47925876  0.04947049  1
  H  H45  1  0.10778679  0.49990569  0.10708797  1
  H  H46  1  0.00795477  0.48339031  0.46404299  1
  C  C47  1  0.07952905  0.42819309  0.49631193  1
  H  H48  1  0.24637692  0.37562519  0.02596747  1
  C  C49  1  0.21454904  0.10367288  0.73097019  1
  N  N50  1  0.18731066  0.14299750  0.77694626  1
  C  C51  1  0.18055669  0.12675234  0.85586838  1
  N  N52  1  0.22745648  0.06789783  0.78319038  1
  C  C53  1  0.16473085  0.18697867  0.74552274  1
  C  C54  1  0.17778175  0.19257754  0.65565281  1
  H  H55  1  0.15895409  0.14883402  0.90418300  1
  H  H56  1  0.21508451  0.17283734  0.62443554  1
  C  C57  1  0.20600337  0.07999211  0.86068029  1
  H  H58  1  0.07206213  0.14850154  0.58875608  1
  C  C59  1  0.13587650  0.22116692  0.61265053  1
  H  H60  1  0.21848928  0.10766777  0.66409928  1
  H  H61  1  0.20681456  0.05623232  0.91878702  1
  H  H62  1  0.05238265  0.06685646  0.92376033  1
  C  C63  1  0.13019505  0.22206649  0.79364390  1
  H  H64  1  0.07675621  0.14912019  0.84057618  1
  C  C65  1  0.03109686  0.15554652  0.86457613  1
  H  H66  1  0.14172791  0.22932587  0.54636772  1
  C  C67  1  0.02879731  0.04083705  0.88313380  1
  C  C68  1  0.08693304  0.24357076  0.65979214  1
  H  H69  1  0.13639313  0.22754000  0.86293637  1
  C  C70  1  0.03475235  0.16205744  0.55066573  1
  H  H71  1  0.13332751  0.02022538  0.97014045  1
  H  H72  1  0.23856467  0.05983072  0.57635638  1
  C  C73  1  0.00913446  0.21072176  0.55992645  1
  N  N74  1  0.03086555  0.24289664  0.62311607  1
  H  H75  1  0.23942098  0.23243408  0.53634624  1
  C  C76  1  0.01136173  0.14872688  0.94928410  1
  C  C77  1  0.16720033  0.35115477  0.51502622  1
  N  N78  1  0.08720380  0.49647154  0.98857089  1
  C  C79  1  0.09400745  0.25261715  0.74892730  1
  Cl  Cl80  1  0.03758805  0.48849566  0.84038014  1
  C  C81  1  0.09292175  0.47083224  0.92382240  1
  H  H82  1  0.08478490  0.43989988  0.70171222  1
  C  C83  1  0.01722289  0.33067078  0.63045355  1
  C  C84  1  0.03855424  0.46432134  0.50756757  1
  H  H85  1  0.13957300  0.38369183  0.72588607  1
  H  H86  1  0.12720950  0.44297308  0.93415794  1
  H  H87  1  0.16371523  0.46569327  0.67199560  1
  C  C88  1  0.21602914  0.32157176  0.52901714  1
  H  H89  1  0.21568403  0.43030776  0.50983520  1
  N  N90  1  0.10192126  0.41378618  0.57252419  1
  C  C91  1  0.21964203  0.46669644  0.54660575  1
  H  H92  1  0.11173741  0.31650615  0.93273600  1
  C  C93  1  0.14438733  0.37454049  0.58809007  1
  C  C94  1  0.16314849  0.36700968  0.67255137  1
  H  H95  1  0.12811259  0.39373535  0.85537852  1
  C  C96  1  0.20815433  0.30330489  0.96240794  1
  H  H97  1  0.15562072  0.45584115  0.81625776  1
  C  C98  1  0.19710538  0.48283584  0.62598696  1
  C  C99  1  0.20151615  0.46658079  0.83322925  1
  C  C100  1  0.16720233  0.37102521  0.88112412  1
  C  C101  1  0.07646001  0.44359548  0.63329618  1
  C  C102  1  0.15739249  0.33032853  0.92674910  1
  N  N103  1  0.03779750  0.47181701  0.59158669  1
  C  C104  1  0.23033309  0.38398757  0.87895783  1
  H  H105  1  0.06425276  0.33752489  0.61637520  1
  C  C106  1  0.21205321  0.33760710  0.68787813  1
  H  H107  1  0.07360818  0.28351359  0.77997798  1
  H  H108  1  0.23014305  0.33672847  0.75152299  1
  C  C109  1  0.24256708  0.31960757  0.61234202  1
  N  N110  1  0.24483291  0.43453228  0.86098486  1
  C  C111  1  0.08398895  0.64705909  0.04720491  1
  N  N112  1  0.21323004  0.65332375  0.29444267  1
  C  C113  1  0.13219725  0.59177519  0.30265079  1
  H  H114  1  0.15533044  0.60557631  0.16148219  1
  C  C115  1  0.15544154  0.63990227  0.31854837  1
  C  C116  1  0.12648493  0.67360758  0.37575100  1
  C  C117  1  0.06946206  0.66407557  0.40317945  1
  C  C118  1  0.07439204  0.58247630  0.32975396  1
  N  N119  1  0.09277491  0.67964692  0.11309181  1
  C  C120  1  0.20553469  0.60376147  0.16250245  1
  H  H121  1  0.15709959  0.56366434  0.27368835  1
  H  H122  1  0.05297103  0.54631648  0.31046875  1
  N  N123  1  0.05297030  0.60864958  0.07393989  1
  H  H124  1  0.15029490  0.70738343  0.39268473  1
  C  C125  1  0.06061612  0.66296057  0.18094431  1
  H  H126  1  0.05536912  0.68578250  0.23917241  1
  C  C127  1  0.03736002  0.61794171  0.15630263  1
  C  C128  1  0.04167599  0.61964128  0.37313163  1
  H  H129  1  0.21537601  0.54510565  0.07010042  1
  C  C130  1  0.12260727  0.72649328  0.11069011  1
  C  C131  1  0.24581868  0.69299162  0.33212424  1
  H  H132  1  0.04650321  0.69017906  0.44543719  1
  C  C133  1  0.23783748  0.63334502  0.22261964  1
  H  H134  1  0.00952781  0.59197024  0.19337033  1
  Zn  Zn135  1  0.02789781  0.55139256  0.01098237  1
  H  H136  1  0.15916227  0.73198055  0.24106389  1
  C  C137  1  0.23764248  0.57113992  0.11511219  1
  H  H138  1  0.24889594  0.66165381  0.45958217  1
  C  C139  1  0.14885714  0.74996313  0.17939505  1
  H  H140  1  0.20078851  0.96953170  0.05801639  1
  C  C141  1  0.11863565  0.75185995  0.03157615  1
  H  H142  1  0.07195077  0.85230003  0.04409533  1
  C  C143  1  0.08945760  0.88666165  0.02068979  1
  C  C144  1  0.15818665  0.95476345  0.03452415  1
  C  C145  1  0.08258502  0.93463210  0.22606187  1
  C  C146  1  0.16559966  0.82196804  0.09369501  1
  C  C147  1  0.23580930  0.89126004  0.12871002  1
  C  C148  1  0.13195244  0.99286221  0.29146827  1
  C  C149  1  0.13822564  0.82474457  0.39443480  1
  H  H150  1  0.10359458  0.85101180  0.27255199  1
  C  C151  1  0.14000475  0.79948163  0.02174812  1
  N  N152  1  0.06022699  0.97662952  0.19865249  1
  N  N153  1  0.18513746  0.87196420  0.09037820  1
  C  C154  1  0.15238222  0.90763617  0.34238381  1
  H  H155  1  0.20164001  0.81581298  0.22125798  1
  H  H156  1  0.20982724  0.95737323  0.41257191  1
  C  C157  1  0.20587689  0.88247324  0.46446915  1
  H  H158  1  0.06400890  0.89850671  0.20624514  1
  N  N159  1  0.12488345  0.94341906  0.28916754  1
  C  C160  1  0.12950802  0.85854489  0.33096473  1
  C  C161  1  0.14739401  0.90346563  0.04909015  1
  C  C162  1  0.17829819  0.83584018  0.46116775  1
  C  C163  1  0.23731118  0.93740030  0.17537910  1
  H  H164  1  0.12145734  0.78695935  0.38824270  1
  C  C165  1  0.17474240  0.79560684  0.16961579  1
  C  C166  1  0.19282312  0.91993816  0.41008799  1
  H  H167  1  0.19590300  0.95893929  0.17935056  1
  C  C168  1  0.12856466  0.64017350  0.79111382  1
  C  C169  1  0.13100604  0.55779841  0.73866599  1
  C  C170  1  0.03446210  0.61161165  0.61070958  1
  C  C171  1  0.06461411  0.70149976  0.59190861  1
  C  C172  1  0.10290079  0.59340074  0.78950501  1
  H  H173  1  0.06249099  0.58265405  0.82766067  1
  N  N174  1  0.09971044  0.68088874  0.82289296  1
  H  H175  1  0.10912531  0.51944503  0.73206509  1
  C  C176  1  0.18429507  0.56516986  0.68990330  1
  C  C177  1  0.18533394  0.64846361  0.74635287  1
  C  C178  1  0.12667817  0.68668768  0.59746391  1
  H  H179  1  0.07832884  0.59853309  0.58575034  1
  C  C180  1  0.21252915  0.61192570  0.69922882  1
  H  H181  1  0.20117968  0.68642700  0.74129857  1
  H  H182  1  0.14120333  0.65164333  0.62590722  1
  H  H183  1  0.20340358  0.70009858  0.90731925  1
  C  C184  1  0.03965273  0.67985010  0.84720663  1
  H  H185  1  0.21775979  0.71508624  0.57815040  1
  N  N186  1  0.20380128  0.53216485  0.62811921  1
  C  C187  1  0.16798085  0.71993283  0.57155461  1
  C  C188  1  0.01989759  0.72231765  0.89451700  1
  C  C189  1  0.13303424  0.72622928  0.82333263  1
  C  C190  1  0.18649122  0.73136338  0.87339231  1
  N  N191  1  0.02524949  0.66202607  0.61165220  1
  H  H192  1  0.00422726  0.61814247  0.77463847  1
  H  H193  1  0.09375268  0.73285438  0.98335477  1
  H  H194  1  0.21142577  0.55001898  0.81923851  1
  C  C195  1  0.23832120  0.54544810  0.55647758  1
  C  C196  1  0.22988368  0.51335261  0.83359827  1
  H  H197  1  0.10267226  0.65222742  0.98320463  1
  N  N198  1  0.24492398  0.50597759  0.51109611  1
  N  N199  1  0.21661506  0.86473934  0.83917393  1
  C  C200  1  0.04258413  0.75005739  0.56910494  1
  H  H201  1  0.24675586  0.86128557  0.96903067  1
  C  C202  1  0.18980781  0.81694760  0.83021558  1
  H  H203  1  0.07773182  0.75437603  0.72723875  1
  C  C204  1  0.12324704  0.98218108  0.97990913  1
  N  N205  1  0.03194049  0.99096696  0.88820388  1
  H  H206  1  0.01294356  0.90173654  0.93346004  1
  C  C207  1  0.21948664  0.89934789  0.77361840  1
  C  C208  1  0.24826767  0.80532944  0.56457529  1
  H  H209  1  0.04654047  0.75568944  0.89364485  1
  C  C210  1  0.23991172  0.88256538  0.91148330  1
  H  H211  1  0.07691910  0.82225253  0.53966965  1
  H  H212  1  0.13511034  0.81850774  0.95993986  1
  N  N213  1  0.24395508  0.93786681  0.80854083  1
  C  C214  1  0.14032379  0.81057977  0.77375046  1
  H  H215  1  0.19902271  0.89584247  0.71253416  1
  C  C216  1  0.08665004  0.78401161  0.55105832  1
  C  C217  1  0.05499631  0.91268136  0.95836118  1
  C  C218  1  0.21224810  0.77708442  0.87575462  1
  C  C219  1  0.06852587  0.96258528  0.94362122  1
  N  N220  1  0.19421059  0.80109710  0.52447379  1
  H  H221  1  0.12359064  0.84050052  0.73370160  1
  C  C222  1  0.14805309  0.76870072  0.55050215  1
  H  H223  1  0.21626947  0.78135212  0.69694707  1
  C  C224  1  0.11534914  0.76459061  0.76958551  1
  H  H225  1  0.23305229  0.88953728  0.51736171  1
  N  N226  1  0.37856041  0.16991416  0.35422212  1
  C  C227  1  0.35001392  0.12547124  0.35611282  1
  C  C228  1  0.37910909  0.07909709  0.34256302  1
  C  C229  1  0.35720566  0.03668658  0.37822452  1
  H  H230  1  0.42628203  0.07560530  0.31975521  1
  C  C231  1  0.42579519  0.21341943  0.15251159  1
  C  C232  1  0.44060458  0.16966652  0.36650669  1
  N  N233  1  0.43726324  0.16304256  0.13741399  1
  C  C234  1  0.42475041  0.08371582  0.12553659  1
  C  C235  1  0.39506703  0.12891826  0.13053781  1
  H  H236  1  0.40757627  0.04637943  0.11476673  1
  H  H237  1  0.34848675  0.13834571  0.12733372  1
  C  C238  1  0.34905748  0.21567742  0.35274676  1
  H  H239  1  0.45372209  0.10647017  0.45119168  1
  C  C240  1  0.29024864  0.22187686  0.31743090  1
  C  C241  1  0.47486538  0.20509477  0.32051727  1
  C  C242  1  0.47412120  0.13108869  0.40577987  1
  C  C243  1  0.29928650  0.03799978  0.41834355  1
  C  C244  1  0.28759846  0.12532484  0.38303220  1
  H  H245  1  0.32826305  0.21240571  0.16772820  1
  H  H246  1  0.26402818  0.19089390  0.29287616  1
  H  H247  1  0.44870356  0.23644818  0.29784249  1
  C  C248  1  0.27366154  0.04892576  0.07330723  1
  C  C249  1  0.36794822  0.23555099  0.16381227  1
  N  N250  1  0.48301614  0.09340652  0.13843343  1
  C  C251  1  0.47866934  0.24236001  0.14418863  1
  H  H252  1  0.26489599  0.16019133  0.39152703  1
  C  C253  1  0.49519571  0.14013042  0.14724103  1
  C  C254  1  0.26742389  0.13323247  0.02302716  1
  N  N255  1  0.28953055  0.08465118  0.01863223  1
  C  C256  1  0.31326450  0.01007851  0.05504987  1
  H  H257  1  0.42446641  0.24705130  0.41653476  1
  N  N258  1  0.28587187  0.00752680  0.48801205  1
  H  H259  1  0.48895371  0.21042256  0.01277002  1
  H  H260  1  0.38282283  0.00284087  0.38573824  1
  C  C261  1  0.26131688  0.08054431  0.40726417  1
  C  C262  1  0.38204036  0.25616302  0.38625214  1
  C  C263  1  0.48389365  0.36546560  0.01107509  1
  H  H264  1  0.27008611  0.48794348  0.04476139  1
  C  C265  1  0.49751167  0.36974451  0.28283251  1
  N  N266  1  0.27274307  0.35288155  0.34654742  1
  H  H267  1  0.34703849  0.40161031  0.39769926  1
  C  C268  1  0.47811582  0.29482372  0.15875608  1
  N  N269  1  0.26349518  0.43173640  0.36829682  1
  C  C270  1  0.34225179  0.43025641  0.21406710  1
  C  C271  1  0.25058509  0.42426948  0.13514409  1
  H  H272  1  0.36933502  0.44278397  0.26513338  1
  C  C273  1  0.42093951  0.31618441  0.17177094  1
  C  C274  1  0.27345292  0.38755370  0.07683160  1
  H  H275  1  0.43183909  0.46676464  0.17552863  1
  C  C276  1  0.36842847  0.28591064  0.16579493  1
  C  C277  1  0.26284577  0.26744244  0.31847182  1
  C  C278  1  0.45724682  0.44759056  0.22454427  1
  N  N279  1  0.41554543  0.36736457  0.18337813  1
  H  H280  1  0.26380165  0.48003694  0.22698724  1
  C  C281  1  0.32914327  0.36845232  0.09248627  1
  C  C282  1  0.36028631  0.38848242  0.16377265  1
  C  C283  1  0.45924044  0.39432425  0.22589107  1
  C  C284  1  0.36977560  0.46961309  0.02856604  1
  C  C285  1  0.30023116  0.30612777  0.34667423  1
  C  C286  1  0.48114634  0.47286120  0.29085522  1
  H  H287  1  0.38257534  0.33262710  0.41324775  1
  C  C288  1  0.35786467  0.30207502  0.38401735  1
  C  C289  1  0.30029327  0.39565238  0.37600867  1
  H  H290  1  0.35019231  0.34212223  0.05445160  1
  C  C291  1  0.28561436  0.44725917  0.19825008  1
  H  H292  1  0.32309166  0.30387275  0.17152553  1
  C  C293  1  0.31816530  0.49621160  0.04650125  1
  N  N294  1  0.41958508  0.49624553  0.04561573  1
  H  H295  1  0.37661950  0.43181712  0.00527743  1
  C  C296  1  0.37394383  0.17453161  0.57058973  1
  C  C297  1  0.44787573  0.10678649  0.62289139  1
  N  N298  1  0.41478565  0.15435865  0.86228195  1
  C  C299  1  0.41575460  0.21488569  0.58180418  1
  N  N300  1  0.39984912  0.12633690  0.57750819  1
  C  C301  1  0.42455549  0.16256610  0.94586306  1
  N  N302  1  0.44723358  0.05873524  0.61935074  1
  H  H303  1  0.35771011  0.08456422  0.91207974  1
  H  H304  1  0.46489719  0.20617177  0.58420047  1
  C  C305  1  0.39888720  0.04444780  0.57416587  1
  H  H306  1  0.28781165  0.14657815  0.88490338  1
  C  C307  1  0.31136585  0.17718498  0.54478463  1
  C  C308  1  0.28473863  0.22377212  0.55030616  1
  C  C309  1  0.44634021  0.18366520  0.81653104  1
  C  C310  1  0.36897056  0.08777824  0.54770296  1
  C  C311  1  0.46876879  0.19743758  0.95429658  1
  C  C312  1  0.27628865  0.16070027  0.94714097  1
  H  H313  1  0.44532655  0.18341363  0.74747520  1
  N  N314  1  0.48263936  0.21028842  0.87211545  1
  C  C315  1  0.33615094  0.06683948  0.96597399  1
  H  H316  1  0.48521012  0.12643298  0.65568003  1
  H  H317  1  0.28502936  0.14524013  0.52275243  1
  H  H318  1  0.36244769  0.23584753  0.74274739  1
  C  C319  1  0.25792664  0.20934175  0.94899518  1
  H  H320  1  0.40309759  0.14132322  0.99643200  1
  H  H321  1  0.49977729  0.24538024  0.71605594  1
  H  H322  1  0.33326625  0.09010535  0.50155070  1
  Zn  Zn323  1  0.25153117  0.00017632  0.74496722  1
  C  C324  1  0.25960365  0.02308834  0.56479202  1
  H  H325  1  0.25697654  0.23058329  0.89116859  1
  H  H326  1  0.38792249  0.00576135  0.56298154  1
  N  N327  1  0.35301909  0.02653127  0.99844304  1
  H  H328  1  0.44958397  0.29401237  0.95506920  1
  C  C329  1  0.37486397  0.38213563  0.76856481  1
  H  H330  1  0.32597006  0.36052707  0.87599423  1
  C  C331  1  0.40806850  0.34619457  0.81368377  1
  C  C332  1  0.28098100  0.35318749  0.90042515  1
  C  C333  1  0.45879156  0.33480313  0.95168864  1
  C  C334  1  0.32307957  0.26156518  0.58524670  1
  C  C335  1  0.46071734  0.41081409  0.90121960  1
  C  C336  1  0.29716558  0.45957784  0.86783833  1
  H  H337  1  0.45429573  0.44353290  0.86355805  1
  C  C338  1  0.36528192  0.27612042  0.74971395  1
  C  C339  1  0.26953409  0.30942518  0.94208342  1
  C  C340  1  0.40468149  0.29448224  0.80882402  1
  C  C341  1  0.38778920  0.26129688  0.58987283  1
  N  N342  1  0.48264281  0.41195181  0.97812798  1
  H  H343  1  0.30495903  0.28577295  0.96595283  1
  C  C344  1  0.33550940  0.36331698  0.70951561  1
  H  H345  1  0.37833637  0.42166610  0.77816469  1
  H  H346  1  0.33999401  0.44215045  0.87871270  1
  H  H347  1  0.42351280  0.27013273  0.85689696  1
  H  H348  1  0.30974235  0.38998243  0.67367278  1
  N  N349  1  0.29529391  0.29651900  0.63404013  1
  N  N350  1  0.43967112  0.36324461  0.88593317  1
  C  C351  1  0.33042831  0.31051216  0.70282595  1
  H  H352  1  0.41367506  0.29482889  0.61199511  1
  H  H353  1  0.38193756  0.61521825  0.14374633  1
  C  C354  1  0.40240209  0.53819635  0.07686657  1
  N  N355  1  0.33819501  0.53988724  0.07831927  1
  C  C356  1  0.38745125  0.56442567  0.33832476  1
  C  C357  1  0.42583942  0.60261336  0.37410323  1
  C  C358  1  0.33408298  0.61355252  0.15948479  1
  C  C359  1  0.30220356  0.57644650  0.11217091  1
  H  H360  1  0.32451078  0.66269767  0.26364527  1
  C  C361  1  0.30229851  0.63725656  0.22143459  1
  H  H362  1  0.43844874  0.56460339  0.10005808  1
  H  H363  1  0.38396865  0.54904350  0.27311867  1
  N  N364  1  0.34826376  0.55051493  0.39892355  1
  H  H365  1  0.36675814  0.71187666  0.18099606  1
  C  C366  1  0.40436924  0.73448190  0.15910439  1
  C  C367  1  0.31185606  0.72059927  0.44053832  1
  H  H368  1  0.45693046  0.62884203  0.35346041  1
  Cl  Cl369  1  0.48302161  0.60001050  0.22108718  1
  N  N370  1  0.40596635  0.60653035  0.45645877  1
  C  C371  1  0.36146191  0.57262647  0.47111951  1
  C  C372  1  0.26741038  0.72788133  0.27399954  1
  H  H373  1  0.46514037  0.52628108  0.45333449  1
  C  C374  1  0.26409259  0.69009016  0.41665672  1
  N  N375  1  0.37622778  0.72301649  0.02059233  1
  H  H376  1  0.25200042  0.72295987  0.20989287  1
  C  C377  1  0.49223301  0.65748992  0.49934007  1
  H  H378  1  0.43707931  0.73602291  0.28922022  1
  C  C379  1  0.44456040  0.74872068  0.22105995  1
  H  H380  1  0.43139854  0.74296798  0.49781859  1
  H  H381  1  0.47819195  0.51135041  0.29725331  1
  Zn  Zn382  1  0.28308868  0.50324867  0.40340503  1
  C  C383  1  0.40993414  0.75210715  0.07376970  1
  C  C384  1  0.49913733  0.79913890  0.11215768  1
  C  C385  1  0.48592521  0.94508167  0.21867952  1
  N  N386  1  0.38188003  0.78582189  0.40533637  1
  C  C387  1  0.42854370  0.77605824  0.45827572  1
  C  C388  1  0.33843516  0.91238825  0.20776440  1
  C  C389  1  0.45861340  0.78484679  0.05364121  1
  H  H390  1  0.48570760  0.95134049  0.14845628  1
  H  H391  1  0.37147810  0.85183460  0.32665866  1
  H  H392  1  0.37698141  0.84290244  0.15340430  1
  C  C393  1  0.44006579  0.90404224  0.24981103  1
  C  C394  1  0.49560089  0.77684679  0.19497900  1
  C  C395  1  0.33169500  0.75709360  0.38259086  1
  C  C396  1  0.39540502  0.83171984  0.37119378  1
  H  H397  1  0.27378091  0.82554428  0.08000107  1
  H  H398  1  0.44091811  0.86946082  0.21086610  1
  H  H399  1  0.32187106  0.97562293  0.08939877  1
  C  C400  1  0.30854993  0.76399742  0.29952062  1
  C  C401  1  0.28339802  0.85783623  0.12141399  1
  Zn  Zn402  1  0.48241812  0.91922499  0.36793746  1
  N  N403  1  0.44609458  0.84719913  0.40216119  1
  H  H404  1  0.29186387  0.97609745  0.26339234  1
  H  H405  1  0.29477136  0.81713783  0.45333123  1
  H  H406  1  0.32565257  0.93752492  0.45485917  1
  H  H407  1  0.37950103  0.95760471  0.29530773  1
  C  C408  1  0.46859238  0.81505672  0.45610249  1
  N  N409  1  0.38641467  0.93010058  0.25146218  1
  C  C410  1  0.33781571  0.86723700  0.16062940  1
  H  H411  1  0.32348085  0.79472519  0.26035904  1
  C  C412  1  0.28853501  0.94592454  0.21994740  1
  C  C413  1  0.39535164  0.65880941  0.58172752  1
  H  H414  1  0.34802671  0.64560699  0.58726507  1
  N  N415  1  0.39639526  0.61002889  0.90117798  1
  Zn  Zn416  1  0.35095976  0.55892539  0.84800067  1
  Cl  Cl417  1  0.29452127  0.69399383  0.68197474  1
  C  C418  1  0.42666372  0.68457148  0.64721023  1
  H  H419  1  0.40614482  0.69697253  0.70700432  1
  C  C420  1  0.37697334  0.65134031  0.94151349  1
  H  H421  1  0.32735687  0.65516449  0.93194435  1
  C  C422  1  0.45270504  0.60658276  0.89805443  1
  H  H423  1  0.33778150  0.56702912  0.53281383  1
  H  H424  1  0.33095929  0.71936809  0.50554127  1
  C  C425  1  0.40755948  0.68768254  0.98943332  1
  H  H426  1  0.25195715  0.61711091  0.65927065  1
  C  C427  1  0.49000941  0.69452037  0.63925171  1
  H  H428  1  0.45598967  0.69288885  0.99893122  1
  H  H429  1  0.25232258  0.58255604  0.53749944  1
  H  H430  1  0.46820963  0.64207460  0.93035482  1
  C  C431  1  0.43175747  0.64033724  0.51396677  1
  N  N432  1  0.28813940  0.50731608  0.84948519  1
  Cl  Cl433  1  0.48484520  0.54729532  0.84610109  1
  C  C434  1  0.25914822  0.92950278  0.88958071  1
  H  H435  1  0.25441569  0.78317464  0.91247988  1
  H  H436  1  0.46552292  0.79762920  0.99070625  1
  C  C437  1  0.46219181  0.90024484  0.91762048  1
  C  C438  1  0.47504898  0.82204541  0.79188737  1
  C  C439  1  0.29915497  0.82253538  0.52118404  1
  C  C440  1  0.34578037  0.84943453  0.55813574  1
  H  H441  1  0.46036813  0.78251385  0.67532874  1
  H  H442  1  0.44562551  0.90299035  0.59308046  1
  H  H443  1  0.44423260  0.85192185  0.77617265  1
  N  N444  1  0.47637698  0.93528635  0.97079428  1
  C  C445  1  0.28834005  0.94834077  0.58612268  1
  C  C446  1  0.29836925  0.82351275  0.69929536  1
  C  C447  1  0.48315667  0.78329697  0.73665803  1
  H  H448  1  0.30100815  0.82202387  0.76893941  1
  N  N449  1  0.43919509  0.94834830  0.70048073  1
  H  H450  1  0.38264286  0.86277717  0.52022477  1
  H  H451  1  0.32744704  0.89498236  0.79902826  1
  C  C452  1  0.36591837  0.90825982  0.76318322  1
  H  H453  1  0.42701296  0.89799687  0.86914044  1
  C  C454  1  0.34072667  0.85046965  0.64659063  1
  H  H455  1  0.40185885  0.98264607  0.80615818  1
  H  H456  1  0.27771311  0.95821387  0.92976285  1
  C  C457  1  0.40331836  0.95074777  0.76625446  1
  N  N458  1  0.37826428  0.88631435  0.69067434  1
  C  C459  1  0.42488037  0.91141841  0.65272852  1
  H  H460  1  0.29919262  0.91647643  0.63047311  1
  C  C461  1  0.25083615  0.80158950  0.65762394  1
  N  N462  1  0.26582959  0.99038912  0.62129415  1
  Zn  Zn463  1  0.43603356  0.99917411  0.97055388  1
  C  C464  1  0.30242987  0.96044368  0.50345646  1
  C  C465  1  0.65749039  0.10392754  0.31617444  1
  C  C466  1  0.64605577  0.16590923  0.22628840  1
  N  N467  1  0.62153914  0.14345040  0.29469719  1
  H  H468  1  0.64749823  0.08253358  0.37384942  1
  C  C469  1  0.56426319  0.15784562  0.33236684  1
  C  C470  1  0.66442159  0.05233020  0.07610578  1
  C  C471  1  0.53459602  0.20110509  0.30264814  1
  H  H472  1  0.62415623  0.19935365  0.20590481  1
  H  H473  1  0.56171801  0.09640047  0.41990954  1
  N  N474  1  0.61802255  0.02547171  0.10895067  1
  N  N475  1  0.70358837  0.10317789  0.26275259  1
  C  C476  1  0.69703832  0.13833148  0.20378413  1
  H  H477  1  0.66538482  0.09256001  0.07112398  1
  H  H478  1  0.52309513  0.22520660  0.12795068  1
  H  H479  1  0.55854662  0.23104063  0.26832191  1
  H  H480  1  0.53738836  0.15845016  0.16049441  1
  C  C481  1  0.53524155  0.12423860  0.38811350  1
  C  C482  1  0.70692070  0.01893684  0.04579097  1
  Zn  Zn483  1  0.54324218  0.04780017  0.16425151  1
  Cl  Cl484  1  0.52541199  0.01070947  0.42136134  1
  H  H485  1  0.70318527  0.23972564  0.09139246  1
  H  H486  1  0.69127013  0.24810008  0.44818933  1
  H  H487  1  0.73370496  0.14198698  0.15638454  1
  H  H488  1  0.50595361  0.35849431  0.07117086  1
  H  H489  1  0.66623478  0.40486940  0.14164266  1
  C  C490  1  0.58337575  0.45221097  0.47946597  1
  N  N491  1  0.53231732  0.46749354  0.43278173  1
  C  C492  1  0.71880556  0.32047207  0.08102163  1
  H  H493  1  0.51919199  0.31544832  0.15673992  1
  C  C494  1  0.51160503  0.44649231  0.35674835  1
  Cl  Cl495  1  0.74079410  0.44082787  0.35422697  1
  C  C496  1  0.72038840  0.47306316  0.14674032  1
  H  H497  1  0.68994662  0.32939562  0.13465855  1
  H  H498  1  0.55198531  0.37654263  0.39199345  1
  Cl  Cl499  1  0.60314074  0.27336925  0.11310129  1
  C  C500  1  0.70632178  0.42527130  0.12252935  1
  C  C501  1  0.72193548  0.27132494  0.05342695  1
  H  H502  1  0.61220770  0.42102819  0.46248523  1
  Zn  Zn503  1  0.50438459  0.47561138  0.02609685  1
  C  C504  1  0.73230901  0.26708001  0.43391833  1
  C  C505  1  0.52400192  0.39651254  0.34601707  1
  H  H506  1  0.50743402  0.33101777  0.27268678  1
  C  C507  1  0.52971060  0.07585978  0.93456381  1
  N  N508  1  0.59074233  0.07470826  0.91927113  1
  H  H509  1  0.66788611  0.18787853  0.81717232  1
  C  C510  1  0.63497910  0.11302590  0.92401191  1
  C  C511  1  0.62110644  0.16067129  0.95140865  1
  C  C512  1  0.69242607  0.10053047  0.89248925  1
  C  C513  1  0.69298314  0.19148550  0.75693879  1
  C  C514  1  0.66746831  0.19404776  0.96236063  1
  C  C515  1  0.60728333  0.02939625  0.89309138  1
  H  H516  1  0.62986123  0.05403424  0.71133500  1
  C  C517  1  0.71638890  0.14952510  0.72178016  1
  H  H518  1  0.70590731  0.11293489  0.74484202  1
  H  H519  1  0.70380817  0.06400387  0.86874525  1
  H  H520  1  0.65324507  0.01902804  0.87343788  1
  C  C521  1  0.72787357  0.18150934  0.93877999  1
  N  N522  1  0.51267653  0.02949501  0.92465787  1
  C  C523  1  0.63378861  0.01421868  0.69250037  1
  H  H524  1  0.57579806  0.17101941  0.96834412  1
  C  C525  1  0.74950606  0.24561947  0.65908064  1
  H  H526  1  0.65240715  0.22947350  0.98310725  1
  C  C527  1  0.71298327  0.23831706  0.73168121  1
  H  H528  1  0.50834992  0.10789599  0.96737100  1
  C  C529  1  0.73923200  0.13331936  0.90918713  1
  C  C530  1  0.52904650  0.24202534  0.85150796  1
  Zn  Zn531  1  0.50028080  0.00658084  0.66942909  1
  H  H532  1  0.71580219  0.44386190  0.84140441  1
  C  C533  1  0.73878051  0.40919480  0.82214082  1
  N  N534  1  0.69424099  0.28060988  0.77816067  1
  C  C535  1  0.70477847  0.36706867  0.82462431  1
  C  C536  1  0.61987861  0.28353131  0.89293079  1
  C  C537  1  0.53541629  0.25324766  0.76184488  1
  H  H538  1  0.55064447  0.25737764  0.98513237  1
  Cl  Cl539  1  0.52104053  0.28248479  0.58124956  1
  C  C540  1  0.63637445  0.28035372  0.80526009  1
  H  H541  1  0.65119103  0.30477512  0.93406293  1
  C  C542  1  0.71303362  0.37541771  0.57252301  1
  C  C543  1  0.62106090  0.35745244  0.59363640  1
  Cl  Cl544  1  0.62241534  0.44389737  0.91923221  1
  N  N545  1  0.58672532  0.48093462  0.54560714  1
  Zn  Zn546  1  0.64852618  0.46579380  0.62886327  1
  N  N547  1  0.70595976  0.32902783  0.53791603  1
  C  C548  1  0.56695962  0.26120440  0.91722881  1
  C  C549  1  0.73088156  0.32120936  0.79431387  1
  N  N550  1  0.66282967  0.39360672  0.60206864  1
  H  H551  1  0.65700870  0.36809214  0.84513002  1
  H  H552  1  0.57201137  0.36440318  0.59703394  1
  C  C553  1  0.64714865  0.31529163  0.55339669  1
  C  C554  1  0.59152286  0.27267014  0.73944061  1
  H  H555  1  0.62572946  0.28279081  0.52290069  1
  H  H556  1  0.60565802  0.27777496  0.67415098  1
  C  C557  1  0.61493980  0.66655574  0.37970493  1
  N  N558  1  0.64825494  0.62469558  0.40310463  1
  C  C559  1  0.62902073  0.71533574  0.40788804  1
  C  C560  1  0.57151859  0.65308794  0.31724772  1
  C  C561  1  0.62499217  0.58013200  0.41325412  1
  C  C562  1  0.67026533  0.54498050  0.40849983  1
  H  H563  1  0.70566548  0.68313770  0.19015348  1
  C  C564  1  0.71294622  0.61941721  0.40308177  1
  H  H565  1  0.54573274  0.56128402  0.10837363  1
  C  C566  1  0.70527743  0.69423087  0.12443323  1
  H  H567  1  0.57047149  0.61467431  0.29897328  1
  N  N568  1  0.72102832  0.57290338  0.40054781  1
  C  C569  1  0.54271081  0.69216048  0.27435135  1
  C  C570  1  0.56177604  0.74012832  0.29992470  1
  N  N571  1  0.62566852  0.63728963  0.09568167  1
  H  H572  1  0.66211752  0.72076498  0.45909431  1
  H  H573  1  0.57624627  0.57817861  0.41582536  1
  C  C574  1  0.66498616  0.66982034  0.06427453  1
  C  C575  1  0.58611783  0.55928536  0.06806295  1
  C  C576  1  0.63070298  0.59557904  0.05573345  1
  H  H577  1  0.51592363  0.65193109  0.43900603  1
  H  H578  1  0.69701731  0.50030122  0.18452803  1
  C  C579  1  0.73454185  0.73534499  0.09204860  1
  H  H580  1  0.74666077  0.64840726  0.39963686  1
  H  H581  1  0.66844913  0.50543444  0.41683924  1
  H  H582  1  0.51618631  0.69093737  0.21384712  1
  N  N583  1  0.57564000  0.51687237  0.02654016  1
  C  C584  1  0.50693792  0.50604098  0.47345545  1
  H  H585  1  0.67013152  0.59035362  0.01623725  1
  C  C586  1  0.73363070  0.74933794  0.00432218  1
  C  C587  1  0.59764665  0.75463401  0.37114798  1
  C  C588  1  0.71904012  0.92693587  0.06041518  1
  H  H589  1  0.51330853  0.82143181  0.49590961  1
  H  H590  1  0.52952106  0.87684170  0.19416464  1
  C  C591  1  0.51036967  0.98628165  0.31394106  1
  C  C592  1  0.52755326  0.92338259  0.01258641  1
  H  H593  1  0.53697337  0.81990025  0.09220418  1
  C  C594  1  0.68852733  0.88627947  0.10009408  1
  H  H595  1  0.65989623  0.75681807  0.25241074  1
  H  H596  1  0.60453160  0.94592006  0.12592358  1
  C  C597  1  0.68523230  0.83061319  0.30397449  1
  H  H598  1  0.65115177  0.89187365  0.13985379  1
  H  H599  1  0.68453466  0.80952174  0.11210268  1
  H  H600  1  0.73002928  0.81557163  0.32725137  1
  C  C601  1  0.63194404  0.97809176  0.10165588  1
  N  N602  1  0.51398903  0.98953168  0.23459953  1
  H  H603  1  0.54760379  0.94989794  0.05680756  1
  H  H604  1  0.66927905  0.98694312  0.23880781  1
  H  H605  1  0.60609770  0.79277930  0.38416645  1
  H  H606  1  0.60218204  0.93603700  0.26259210  1
  N  N607  1  0.71146744  0.91912275  0.29438811  1
  N  N608  1  0.68934086  0.97339017  0.06923396  1
  C  C609  1  0.70939731  0.96857930  0.26805669  1
  C  C610  1  0.64740222  0.79652707  0.26289291  1
  C  C611  1  0.58901974  0.81470904  0.23763820  1
  C  C612  1  0.66782924  0.88186219  0.29433167  1
  N  N613  1  0.54702620  0.77658589  0.24181307  1
  C  C614  1  0.71044742  0.83938128  0.08555734  1
  C  C615  1  0.61187568  0.89649025  0.25962602  1
  C  C616  1  0.56932228  0.86375906  0.22688992  1
  C  C617  1  0.60352767  0.60364660  0.79248153  1
  C  C618  1  0.57891750  0.67886751  0.71985521  1
  C  C619  1  0.63828080  0.69863410  0.73314135  1
  H  H620  1  0.63037375  0.66873507  0.93591671  1
  H  H621  1  0.59228081  0.56631662  0.81300553  1
  C  C622  1  0.56016323  0.63253053  0.75483425  1
  H  H623  1  0.67861036  0.52394485  0.84685418  1
  C  C624  1  0.68014007  0.66825191  0.77090361  1
  C  C625  1  0.66283950  0.62265833  0.80512226  1
  H  H626  1  0.65521504  0.58117962  0.61100946  1
  H  H627  1  0.51216226  0.62266076  0.75903698  1
  H  H628  1  0.67345804  0.65487610  0.60404400  1
  N  N629  1  0.53208167  0.70993311  0.69900840  1
  N  N630  1  0.70741970  0.59804363  0.85431714  1
  C  C631  1  0.52155482  0.68166580  0.56383512  1
  C  C632  1  0.70933256  0.55080140  0.87579247  1
  H  H633  1  0.53495781  0.53963704  0.59694855  1
  C  C634  1  0.70081629  0.56312001  0.62050970  1
  C  C635  1  0.71608957  0.67100906  0.58862966  1
  C  C636  1  0.66289215  0.68608727  0.97681046  1
  H  H637  1  0.59016656  0.71652199  0.84638477  1
  C  C638  1  0.72368965  0.71869692  0.56307756  1
  N  N639  1  0.70984067  0.51691509  0.63621270  1
  H  H640  1  0.56817816  0.69457570  0.55620536  1
  H  H641  1  0.72596433  0.68147671  0.77428515  1
  C  C642  1  0.54147088  0.51403701  0.54442457  1
  C  C643  1  0.62332772  0.50557655  0.98825707  1
  H  H644  1  0.65416812  0.53530695  0.99322361  1
  C  C645  1  0.69344708  0.72547327  0.94842049  1
  C  C646  1  0.52269107  0.74497939  0.76163084  1
  C  C647  1  0.56149714  0.74775430  0.83344546  1
  H  H648  1  0.68798686  0.74434368  0.56045227  1
  H  H649  1  0.68906008  0.73668033  0.88176419  1
  H  H650  1  0.64994227  0.73371800  0.71252921  1
  C  C651  1  0.55797208  0.78749769  0.88616576  1
  C  C652  1  0.55728466  0.99926699  0.90050607  1
  C  C653  1  0.59865853  0.94182804  0.65850336  1
  H  H654  1  0.58700810  0.85516663  0.98851981  1
  H  H655  1  0.73124654  0.98804901  0.68625107  1
  H  H656  1  0.55234929  0.95788408  0.89861370  1
  C  C657  1  0.69041374  0.84894943  0.67453950  1
  C  C658  1  0.54703433  0.87876064  0.97541864  1
  H  H659  1  0.72613391  0.77506337  0.66649856  1
  C  C660  1  0.73050348  0.81438866  0.64636389  1
  C  C661  1  0.70279793  0.89835092  0.64865495  1
  H  H662  1  0.58178571  0.78938871  0.94483483  1
  C  C663  1  0.68195720  0.98277732  0.68518963  1
  H  H664  1  0.65527831  0.84229267  0.72053825  1
  N  N665  1  0.58374161  0.98747239  0.67507528  1
  N  N666  1  0.66205361  0.93790982  0.65984851  1
  H  H667  1  0.56514799  0.91287153  0.64317436  1
  H  H668  1  0.73547463  0.85113298  0.86359433  1
  N  N669  1  0.50637712  0.86428401  0.91669283  1
  C  C670  1  0.51193675  0.82154182  0.86361021  1
  N  N671  1  0.89854746  0.11112398  0.10809309  1
  C  C672  1  0.93675248  0.07711325  0.14536010  1
  C  C673  1  0.88229890  0.15711684  0.14465624  1
  C  C674  1  0.87295147  0.11735637  0.35736882  1
  N  N675  1  0.85654719  0.07746252  0.31968054  1
  C  C676  1  0.92157153  0.16627912  0.21463407  1
  H  H677  1  0.84548382  0.14980159  0.36440288  1
  C  C678  1  0.83646052  0.18869195  0.11070006  1
  C  C679  1  0.91565913  0.20802119  0.25987401  1
  C  C680  1  0.90561338  0.04580410  0.31920459  1
  N  N681  1  0.93136527  0.11212401  0.38900262  1
  C  C682  1  0.82517251  0.22854588  0.16269594  1
  N  N683  1  0.93983930  0.03854484  0.09565052  1
  H  H684  1  0.81172129  0.18293765  0.04899222  1
  H  H685  1  0.89386936  0.20302477  0.41907567  1
  C  C686  1  0.86534952  0.23617906  0.23173790  1
  C  C687  1  0.95324340  0.06924541  0.35889314  1
  H  H688  1  0.95913897  0.08519299  0.20504075  1
  H  H689  1  0.93994747  0.21403007  0.32013772  1
  H  H690  1  0.95478425  0.14003439  0.23669539  1
  Zn  Zn691  1  0.77246671  0.06349653  0.27889245  1
  C  C692  1  0.93224880  0.19380114  0.45726296  1
  C  C693  1  0.95964612  0.14745113  0.44480140  1
  H  H694  1  0.90655765  0.01257588  0.28327523  1
  H  H695  1  0.98006172  0.14601234  0.06301017  1
  H  H696  1  0.75137210  0.02557526  0.01812170  1
  C  C697  1  0.91456941  0.04926667  0.02128551  1
  C  C698  1  0.88735148  0.09594766  0.02870755  1
  H  H699  1  0.75730662  0.22450598  0.32476792  1
  H  H700  1  0.88189397  0.24231492  0.01363575  1
  H  H701  1  0.88751253  0.33558645  0.40210835  1
  C  C702  1  0.80921503  0.44449636  0.43074505  1
  H  H703  1  0.79075830  0.25743676  0.15417484  1
  C  C704  1  0.77290539  0.25109938  0.37204930  1
  H  H705  1  0.83600312  0.41552383  0.45556047  1
  N  N706  1  0.91437958  0.46121150  0.14303482  1
  C  C707  1  0.93427604  0.37309472  0.15487486  1
  C  C708  1  0.79205876  0.44683007  0.06122983  1
  H  H709  1  0.98151846  0.45089114  0.04043179  1
  C  C710  1  0.92042211  0.32784274  0.19098968  1
  H  H711  1  0.94368811  0.29377646  0.17495795  1
  C  C712  1  0.84688360  0.31311941  0.41668100  1
  C  C713  1  0.75074747  0.30538850  0.48871681  1
  C  C714  1  0.80854261  0.32812258  0.48047482  1
  H  H715  1  0.79974745  0.36327686  0.31845755  1
  N  N716  1  0.75152638  0.40832932  0.07095666  1
  H  H717  1  0.83392086  0.44491648  0.02663209  1
  H  H718  1  0.97809459  0.38243180  0.43101413  1
  C  C719  1  0.89717300  0.41416790  0.17279202  1
  C  C720  1  0.87873123  0.47751880  0.49824679  1
  H  H721  1  0.97443113  0.37751307  0.11425614  1
  C  C722  1  0.99841286  0.35366971  0.39260394  1
  C  C723  1  0.95592832  0.47500882  0.08009270  1
  C  C724  1  0.84478819  0.40902481  0.22739282  1
  C  C725  1  0.87041718  0.32435210  0.24735273  1
  C  C726  1  0.83534004  0.36607519  0.27078276  1
  N  N727  1  0.85564902  0.27921352  0.27913723  1
  N  N728  1  0.83075029  0.48570872  0.44878489  1
  C  C729  1  0.75531887  0.35926590  0.04399163  1
  H  H730  1  0.81892802  0.44166159  0.23922622  1
  N  N731  1  0.77169256  0.48371707  0.10488220  1
  C  C732  1  0.82655375  0.27706813  0.35746125  1
  N  N733  1  0.98653894  0.30556901  0.40236869  1
  N  N734  1  0.79906315  0.12173862  0.63251298  1
  C  C735  1  0.84357766  0.13051423  0.57703536  1
  C  C736  1  0.80670740  0.06990963  0.65882671  1
  Cl  Cl737  1  0.78850931  0.04983815  0.77718756  1
  N  N738  1  0.86200596  0.05124756  0.62058934  1
  H  H739  1  0.79076088  0.17880475  0.79377427  1
  C  C740  1  0.83201396  0.18390370  0.82876075  1
  C  C741  1  0.87740974  0.08822600  0.56746154  1
  C  C742  1  0.88540006  0.16902184  0.79717224  1
  H  H743  1  0.88640039  0.14899708  0.73828894  1
  C  C744  1  0.82985845  0.20888636  0.90762438  1
  H  H745  1  0.79640633  0.20750123  0.56006403  1
  C  C746  1  0.93960905  0.18078918  0.84529079  1
  C  C747  1  0.77362107  0.20457934  0.62008858  1
  N  N748  1  0.77354776  0.21594245  0.94940000  1
  H  H749  1  0.78344308  0.12412655  0.88672510  1
  C  C750  1  0.93911938  0.21287532  0.91726822  1
  H  H751  1  0.90868156  0.02432978  0.96926761  1
  H  H752  1  0.78260912  0.06348820  0.59556896  1
  C  C753  1  0.88347481  0.22324283  0.95108920  1
  N  N754  1  0.97024626  0.00825800  0.78457647  1
  H  H755  1  0.84558770  0.16715757  0.54939408  1
  H  H756  1  0.92228768  0.08173976  0.53531187  1
  H  H757  1  0.97417524  0.08670216  0.78834222  1
  C  C758  1  0.98904536  0.05122728  0.81686407  1
  H  H759  1  0.86319233  0.11789331  0.98269430  1
  C  C760  1  0.76036715  0.15805156  0.65482615  1
  H  H761  1  0.98027665  0.22278569  0.95726781  1
  C  C762  1  0.95791756  0.22566923  0.51452661  1
  H  H763  1  0.96347120  0.14537335  0.96899590  1
  N  N764  1  0.99119101  0.16514815  0.80715770  1
  H  H765  1  0.91375996  0.23991404  0.66273172  1
  H  H766  1  0.99914048  0.40208396  0.59113606  1
  C  C767  1  0.92871418  0.27749783  0.65255746  1
  N  N768  1  0.88009700  0.39463339  0.55683811  1
  N  N769  1  0.83734976  0.44927369  0.77854540  1
  C  C770  1  0.79554406  0.34720253  0.97626157  1
  H  H771  1  0.83191896  0.29091342  0.90047752  1
  C  C772  1  0.82643871  0.49703649  0.79698237  1
  C  C773  1  0.89590587  0.44688193  0.74336406  1
  H  H774  1  0.91551293  0.41601400  0.71035465  1
  N  N775  1  0.91600677  0.49182029  0.73506257  1
  H  H776  1  0.75663946  0.28082294  0.63114323  1
  H  H777  1  0.94747071  0.43569348  0.58142358  1
  C  C778  1  0.90348508  0.43698519  0.54434050  1
  C  C779  1  0.99178971  0.28221253  0.63876500  1
  C  C780  1  0.79994536  0.29977084  0.95095541  1
  C  C781  1  0.88963684  0.31660909  0.63723384  1
  H  H782  1  0.93910137  0.26306593  0.51906156  1
  H  H783  1  0.84126529  0.31433750  0.64662748  1
  H  H784  1  0.75769926  0.39546812  0.57238586  1
  H  H785  1  0.78643182  0.46788172  0.63384623  1
  C  C786  1  0.76385868  0.26071463  0.98342921  1
  H  H787  1  0.81465617  0.28564183  0.76010267  1
  H  H788  1  0.82172178  0.37754189  0.95011931  1
  H  H789  1  0.87711674  0.35848763  0.77127902  1
  C  C790  1  0.97935838  0.36754189  0.60832917  1
  H  H791  1  0.82505232  0.35642854  0.52701499  1
  C  C792  1  0.79255750  0.31920762  0.77776463  1
  C  C793  1  0.91426705  0.36261106  0.60639958  1
  C  C794  1  0.80100126  0.40781377  0.79157589  1
  C  C795  1  0.82778539  0.36099174  0.78138112  1
  C  C796  1  0.93858652  0.57585684  0.37295330  1
  N  N797  1  0.88316264  0.58905041  0.38839789  1
  H  H798  1  0.95010298  0.53783842  0.35728012  1
  C  C799  1  0.94313999  0.65466257  0.40141840  1
  C  C800  1  0.88339909  0.63746484  0.40530230  1
  C  C801  1  0.82231065  0.61669101  0.21824870  1
  Zn  Zn802  1  0.80507200  0.54859120  0.39239562  1
  H  H803  1  0.84402990  0.63422652  0.27103235  1
  H  H804  1  0.84043628  0.65694803  0.41345741  1
  H  H805  1  0.96394349  0.68992409  0.41734019  1
  N  N806  1  0.85205082  0.62834031  0.15207718  1
  H  H807  1  0.92015834  0.58379104  0.14393700  1
  H  H808  1  0.90698113  0.67373348  0.23493942  1
  C  C809  1  0.89862568  0.65814925  0.17416287  1
  C  C810  1  0.93107082  0.67058836  0.09882945  1
  C  C811  1  0.92344782  0.54329810  0.13502544  1
  N  N812  1  0.97822887  0.61530838  0.38115649  1
  N  N813  1  0.96215995  0.52290355  0.07896498  1
  Zn  Zn814  1  0.83557722  0.60865906  0.03706809  1
  H  H815  1  0.97165554  0.69491997  0.10295008  1
  Cl  Cl816  1  0.75745823  0.57501372  0.18790008  1
  N  N817  1  0.91329786  0.65408870  0.02665081  1
  H  H818  1  0.86077033  0.50657209  0.22951494  1
  H  H819  1  0.82287059  0.73781343  0.40065215  1
  Cl  Cl820  1  0.76097153  0.73508251  0.27688830  1
  C  C821  1  0.89623825  0.50426492  0.17728290  1
  N  N822  1  0.76013809  0.99022026  0.28737564  1
  Zn  Zn823  1  0.98590901  0.97999802  0.12980774  1
  H  H824  1  0.95357718  0.88741149  0.43077672  1
  C  C825  1  0.76697074  0.91382548  0.32809092  1
  H  H826  1  0.86029456  0.78264309  0.26935822  1
  H  H827  1  0.76936222  0.75153287  0.13246482  1
  H  H828  1  0.84642579  0.83313882  0.18701769  1
  C  C829  1  0.85093880  0.79625854  0.48437637  1
  H  H830  1  0.84252319  0.97036072  0.34499170  1
  C  C831  1  0.89184928  0.83491189  0.49428793  1
  H  H832  1  0.89389517  0.90253966  0.06413460  1
  C  C833  1  0.92315633  0.85599935  0.42321603  1
  H  H834  1  0.77527329  0.88158172  0.36995030  1
  N  N835  1  0.91223220  0.87129585  0.26569517  1
  C  C836  1  0.79863595  0.95801614  0.32040595  1
  C  C837  1  0.86706662  0.79964580  0.33116182  1
  C  C838  1  0.95061377  0.91058063  0.25445699  1
  C  C839  1  0.90284142  0.84233788  0.34134697  1
  C  C840  1  0.90236562  0.89564281  0.13525175  1
  C  C841  1  0.88215097  0.86136233  0.19448523  1
  C  C842  1  0.84285137  0.77482975  0.40291669  1
  N  N843  1  0.94455135  0.92278989  0.17488823  1
  H  H844  1  0.97833680  0.92634890  0.30374534  1
  C  C845  1  0.75915941  0.83268526  0.02560593  1
  C  C846  1  0.77453844  0.92145338  0.01453766  1
  H  H847  1  0.84611315  0.55622719  0.60454566  1
  C  C848  1  0.95298308  0.63248366  0.88922356  1
  H  H849  1  0.92338777  0.60075002  0.88882272  1
  C  C850  1  0.79907760  0.54997018  0.61520289  1
  C  C851  1  0.94653909  0.66592284  0.95748756  1
  H  H852  1  0.88801121  0.56212123  0.77894323  1
  C  C853  1  0.94691647  0.62253036  0.66384623  1
  H  H854  1  0.90350103  0.61224139  0.69654883  1
  C  C855  1  0.96805725  0.66840719  0.64429066  1
  N  N856  1  0.77862720  0.58887360  0.95182525  1
  H  H857  1  0.94840804  0.70264607  0.66240933  1
  C  C858  1  0.82299003  0.65184897  0.56713608  1
  C  C859  1  0.87841825  0.52364036  0.77451036  1
  C  C860  1  0.97387610  0.71480049  0.95251560  1
  C  C861  1  0.83454243  0.70103474  0.55168955  1
  H  H862  1  0.85809352  0.62491286  0.56806881  1
  C  C863  1  0.78506105  0.73497743  0.54867701  1
  H  H864  1  0.88070655  0.71553029  0.54230232  1
  C  C865  1  0.76489387  0.63687373  0.59133267  1
  H  H866  1  0.76099552  0.51302892  0.97783957  1
  C  C867  1  0.75187324  0.62164966  0.90308118  1
  Zn  Zn868  1  0.98416103  0.51337504  0.66508141  1
  H  H869  1  0.75458849  0.66136141  0.89783888  1
  C  C870  1  0.76969589  0.50622789  0.63380968  1
  C  C871  1  0.75363079  0.54465485  0.93891379  1
  N  N872  1  0.98782006  0.58802480  0.64084609  1
  N  N873  1  0.75683180  0.58641322  0.60537572  1
  H  H874  1  0.84756584  0.71972288  0.91650162  1
  H  H875  1  0.95284036  0.74155536  0.99530937  1
  H  H876  1  0.92399645  0.74887473  0.82352328  1
  C  C877  1  0.99864145  0.63998627  0.83208039  1
  H  H878  1  0.78394829  0.50663610  0.82686456  1
  H  H879  1  0.89518152  0.51532903  0.50821597  1
  H  H880  1  0.80061726  0.95188520  0.98812032  1
  H  H881  1  0.99474466  0.75685420  0.56521687  1
  Zn  Zn882  1  0.92276498  0.99621867  0.67471057  1
  N  N883  1  0.76589218  0.79052386  0.98123276  1
  C  C884  1  0.88335867  0.76927198  0.82958648  1
  H  H885  1  0.89669324  0.91341887  0.74595419  1
  C  C886  1  0.83957633  0.75411517  0.88620418  1
  H  H887  1  0.83104669  0.86518032  0.95660576  1
  C  C888  1  0.99358572  0.97154138  0.82565527  1
  N  N889  1  0.93717153  0.92646389  0.65591827  1
  H  H890  1  0.98623426  0.93384371  0.80992335  1
  Cl  Cl891  1  0.99369631  0.82300520  0.96197364  1
  C  C892  1  0.91932463  0.88825235  0.70230152  1
  C  C893  1  0.96214073  0.90548994  0.59261137  1
  H  H894  1  0.95050550  0.76969772  0.70362813  1
  C  C895  1  0.79362053  0.78953931  0.89993095  1
  C  C896  1  0.77816575  0.82980430  0.84855645  1
  H  H897  1  0.96800198  0.86612420  0.60094206  1
  C  C898  1  0.81886325  0.84000357  0.78315431  1
  C  C899  1  0.91829992  0.83336846  0.71746890  1
  N  N900  1  0.95554636  0.80319365  0.68299934  1
  N  N901  1  0.80435061  0.78393910  0.54238489  1
  H  H902  1  0.81309755  0.87351313  0.74235589  1
  H  H903  1  0.89002314  0.85066201  0.56040999  1
  C  C904  1  0.87215525  0.81233959  0.77985930  1
  C  C905  1  0.78540250  0.87210832  0.56260921  1
  C  C906  1  0.77337170  0.82214632  0.58052154  1
  C  C907  1  0.79206697  0.87389792  0.99477452  1
  Cl  Cl908  1  0.98366713  0.95365147  0.51578459  1
  C  C909  1  0.75163551  0.90980872  0.59657965  1
  H  H910  1  0.75818966  0.94730243  0.56702776  1
  H  H911  1  0.82046727  0.88308129  0.51773063  1
