# generated using pymatgen
data_ZnH17C26(NO3)2
_symmetry_space_group_name_H-M   'P 1'
_cell_length_a   22.49166048
_cell_length_b   24.10846885
_cell_length_c   17.38335854
_cell_angle_alpha   90.00000000
_cell_angle_beta   90.00000000
_cell_angle_gamma   90.00000000
_symmetry_Int_Tables_number   1
_chemical_formula_structural   ZnH17C26(NO3)2
_chemical_formula_sum   'Zn16 H272 C416 N32 O96'
_cell_volume   9425.94357871
_cell_formula_units_Z   16
loop_
 _symmetry_equiv_pos_site_id
 _symmetry_equiv_pos_as_xyz
  1  'x, y, z'
loop_
 _atom_site_type_symbol
 _atom_site_label
 _atom_site_symmetry_multiplicity
 _atom_site_fract_x
 _atom_site_fract_y
 _atom_site_fract_z
 _atom_site_occupancy
  C  C0  1  0.16041408  0.15766420  0.17836785  1
  C  C1  1  0.15861543  0.18014420  0.10493889  1
  C  C2  1  0.10222773  0.19594599  0.06984158  1
  C  C3  1  0.04457361  0.19151250  0.11018654  1
  H  H4  1  0.11565442  0.15593397  0.21198577  1
  C  C5  1  0.18710663  0.10775977  0.30033119  1
  O  O6  1  0.15650330  0.21489472  0.43595944  1
  H  H7  1  0.09966001  0.36399247  0.06245416  1
  O  O8  1  0.13491008  0.10954780  0.32497156  1
  C  C9  1  0.16407197  0.03963036  0.11538448  1
  C  C10  1  0.21323604  0.19035184  0.05690650  1
  C  C11  1  0.20584397  0.38824693  0.03169239  1
  C  C12  1  0.22073246  0.43411087  0.15233120  1
  H  H13  1  0.14021966  0.07544423  0.09179613  1
  Zn  Zn14  1  0.08248586  0.15384021  0.41833774  1
  H  H15  1  0.17120517  0.33307023  0.39083679  1
  H  H16  1  0.19124668  0.06931302  0.45859764  1
  O  O17  1  0.03308130  0.18133913  0.17582700  1
  O  O18  1  0.20949127  0.41788547  0.48561606  1
  O  O19  1  0.19132649  0.45678605  0.36072858  1
  O  O20  1  0.02132875  0.21495624  0.36400387  1
  C  C21  1  0.06704948  0.00313449  0.15803933  1
  C  C22  1  0.02202018  0.04401216  0.38635690  1
  C  C23  1  0.08346165  0.40842578  0.49875890  1
  O  O24  1  0.22510014  0.08276720  0.33555321  1
  O  O25  1  0.18167800  0.40961512  0.10247211  1
  H  H26  1  0.13812593  0.29629980  0.14699178  1
  C  C27  1  0.10622351  0.43716951  0.43319182  1
  C  C28  1  0.00942119  0.46154426  0.39131982  1
  C  C29  1  0.22550729  0.03444797  0.11506625  1
  C  C30  1  0.17036580  0.44131461  0.41884391  1
  O  O31  1  0.02479151  0.37661991  0.12033552  1
  C  C32  1  0.20618324  0.13413862  0.22323964  1
  O  O33  1  0.00442164  0.30357802  0.36018069  1
  H  H34  1  0.09987392  0.33896033  0.27204161  1
  H  H35  1  0.19339097  0.45149948  0.20256630  1
  O  O36  1  0.04172103  0.04411115  0.13592148  1
  C  C37  1  0.06822074  0.46397906  0.37862013  1
  H  H38  1  0.08472588  0.48822046  0.32872543  1
  C  C39  1  0.16534476  0.30083522  0.19863071  1
  O  O40  1  0.01844713  0.09034878  0.42300040  1
  C  C41  1  0.14418230  0.32256359  0.26839702  1
  C  C42  1  0.18431563  0.32035458  0.33258567  1
  C  C43  1  0.22305024  0.27675643  0.20379645  1
  C  C44  1  0.23271286  0.07224710  0.49508810  1
  H  H45  1  0.24793025  0.39895776  0.17960571  1
  H  H46  1  0.24372379  0.26068746  0.15097709  1
  N  N47  1  0.23712864  0.29741587  0.34013499  1
  C  C48  1  0.09386340  0.00932095  0.47959079  1
  C  C49  1  0.07866974  0.00718345  0.40074564  1
  C  C50  1  0.17409956  0.23072128  0.49946894  1
  C  C51  1  0.00046073  0.33288151  0.00098652  1
  C  C52  1  0.00277126  0.27625702  0.85023480  1
  H  H53  1  0.19482991  0.13383201  0.87732994  1
  O  O54  1  0.07418058  0.14798554  0.55233282  1
  C  C55  1  0.00593958  0.23694733  0.78614180  1
  C  C56  1  0.15690181  0.18191613  0.73978628  1
  C  C57  1  0.19642508  0.20003757  0.79515108  1
  C  C58  1  0.18871553  0.15843476  0.67847548  1
  H  H59  1  0.16459927  0.14528351  0.62383603  1
  C  C60  1  0.19762468  0.05028573  0.92320969  1
  C  C61  1  0.06814726  0.44997632  0.85708079  1
  N  N62  1  0.23181298  0.40447364  0.61708784  1
  Zn  Zn63  1  0.04646105  0.27304935  0.58403453  1
  C  C64  1  0.05688156  0.33306921  0.96289370  1
  C  C65  1  0.02016002  0.08030079  0.95018497  1
  H  H66  1  0.17157514  0.33227281  0.55915872  1
  C  C67  1  0.21894699  0.41675928  0.69149865  1
  H  H68  1  0.10741275  0.18640128  0.74531541  1
  C  C69  1  0.03229331  0.11739380  0.60408463  1
  C  C70  1  0.09661409  0.21623071  0.99521395  1
  H  H71  1  0.02414580  0.12496360  0.94111937  1
  C  C72  1  0.09907248  0.33806032  0.64981046  1
  C  C73  1  0.04601886  0.20311994  0.65257734  1
  H  H74  1  0.11540736  0.07411780  0.93570033  1
  C  C75  1  0.10861902  0.31729770  0.84679810  1
  C  C76  1  0.09259594  0.00985263  0.73616865  1
  C  C77  1  0.09423823  0.20325783  0.59496853  1
  H  H78  1  0.05388702  0.38056550  0.76853048  1
  O  O79  1  0.21859370  0.09238829  0.56592522  1
  O  O80  1  0.22749977  0.24127503  0.51156833  1
  C  C81  1  0.01974069  0.15207972  0.67143472  1
  C  C82  1  0.05936571  0.30614109  0.69467078  1
  C  C83  1  0.16580925  0.36236410  0.97245633  1
  C  C84  1  0.20587246  0.21231524  0.97684665  1
  C  C85  1  0.15274800  0.46511862  0.58485685  1
  H  H86  1  0.14085624  0.23381074  0.88745676  1
  C  C87  1  0.05728443  0.30897348  0.88173449  1
  C  C88  1  0.03274204  0.25090110  0.70551717  1
  H  H89  1  0.11580172  0.38020549  0.66973298  1
  H  H90  1  0.11144590  0.38349978  0.53843259  1
  H  H91  1  0.06596995  0.03561964  0.51543527  1
  C  C92  1  0.12892372  0.24948014  0.55950570  1
  C  C93  1  0.13284759  0.30740693  0.57907838  1
  C  C94  1  0.19878616  0.42790367  0.55776358  1
  N  N95  1  0.13540457  0.03272023  0.69575225  1
  C  C96  1  0.16545484  0.33465741  0.83448927  1
  C  C97  1  0.07388022  0.05073384  0.95189228  1
  H  H98  1  0.05255270  0.22710792  0.97293354  1
  H  H99  1  0.08560305  0.42382844  0.90328174  1
  C  C100  1  0.19242105  0.35686688  0.90191813  1
  C  C101  1  0.19095040  0.02021772  0.70914267  1
  H  H102  1  0.18804538  0.32748797  0.77865856  1
  N  N103  1  0.01873763  0.45085675  0.73329676  1
  C  C104  1  0.04694455  0.42597916  0.78699531  1
  H  H105  1  0.22066291  0.04522675  0.67184986  1
  H  H106  1  0.16533893  0.45479934  0.78034985  1
  C  C107  1  0.13657449  0.47620833  0.65890812  1
  C  C108  1  0.14761379  0.22180102  0.94985555  1
  C  C109  1  0.17112432  0.44837273  0.71619211  1
  C  C110  1  0.22196086  0.09746232  0.89681930  1
  C  C111  1  0.10628094  0.35461620  0.99868162  1
  H  H112  1  0.05072894  0.02759586  0.71311452  1
  H  H113  1  0.24011406  0.36569855  0.90385649  1
  C  C114  1  0.24514762  0.21331316  0.83782943  1
  H  H115  1  0.00317226  0.38774247  0.56116203  1
  H  H116  1  0.24867645  0.39633090  0.73377885  1
  O  O117  1  0.01262222  0.07431332  0.59042383  1
  H  H118  1  0.13382783  0.48973974  0.53721161  1
  C  C119  1  0.02271888  0.40910579  0.51568647  1
  H  H120  1  0.11366240  0.75036918  0.31371594  1
  C  C121  1  0.19561766  0.88696164  0.00493732  1
  N  N122  1  0.06881085  0.83674274  0.22581965  1
  C  C123  1  0.14802662  0.57375453  0.12694895  1
  C  C124  1  0.04325596  0.85422254  0.29396771  1
  H  H125  1  0.19286110  0.91991693  0.33980949  1
  N  N126  1  0.15041428  0.54454473  0.19263017  1
  C  C127  1  0.16257557  0.94486434  0.37862001  1
  H  H128  1  0.03897126  0.59189384  0.14560711  1
  C  C129  1  0.18669527  0.74716105  0.02285226  1
  H  H130  1  0.09416561  0.96953601  0.29099148  1
  C  C131  1  0.14588065  0.66189252  0.19306217  1
  H  H132  1  0.06183934  0.79825050  0.09670999  1
  H  H133  1  0.14491510  0.70687769  0.18954663  1
  C  C134  1  0.21600800  0.94148066  0.18207747  1
  C  C135  1  0.00685870  0.71824433  0.19555790  1
  O  O136  1  0.03302695  0.95552193  0.18513382  1
  H  H137  1  0.15025357  0.54266974  0.07932673  1
  N  N138  1  0.17656387  0.78084338  0.38851332  1
  C  C139  1  0.13077228  0.74797656  0.37641499  1
  C  C140  1  0.22292084  0.75279174  0.08739694  1
  N  N141  1  0.12531404  0.82311639  0.22395324  1
  H  H142  1  0.12396831  0.85031879  0.36579498  1
  H  H143  1  0.04744841  0.71715355  0.16100531  1
  H  H144  1  0.05871971  0.55956728  0.35243410  1
  H  H145  1  0.06358706  0.70146886  0.29949775  1
  C  C146  1  0.11201768  0.97385594  0.35192128  1
  C  C147  1  0.20670863  0.78362284  0.15190636  1
  C  C148  1  0.07647971  0.86074474  0.36440227  1
  H  H149  1  0.07186173  0.89853468  0.48118526  1
  C  C150  1  0.14473329  0.79822672  0.15638766  1
  C  C151  1  0.10656547  0.78462801  0.09417742  1
  C  C152  1  0.14770732  0.57254095  0.25861677  1
  H  H153  1  0.17033315  0.65627668  0.07108598  1
  H  H154  1  0.00830609  0.81881943  0.01486036  1
  C  C155  1  0.17983029  0.94955926  0.45686986  1
  H  H156  1  0.19950081  0.84328133  0.01861832  1
  H  H157  1  0.12349636  0.91195270  0.20244321  1
  H  H158  1  0.14731909  0.57113819  0.43801216  1
  H  H159  1  0.10185004  0.89093052  0.02258447  1
  C  C160  1  0.05084156  0.57816366  0.41082101  1
  C  C161  1  0.15544146  0.94484092  0.18004005  1
  C  C162  1  0.15692620  0.63248421  0.12363139  1
  H  H163  1  0.13388586  0.65301503  0.31624409  1
  N  N164  1  0.23255615  0.92510296  0.48063853  1
  C  C165  1  0.14027259  0.63072733  0.26130709  1
  C  C166  1  0.10213640  0.71962657  0.43769615  1
  H  H167  1  0.02845519  0.62097817  0.28253038  1
  C  C168  1  0.04801677  0.88370694  0.42629436  1
  C  C169  1  0.12644541  0.76301341  0.02574919  1
  C  C170  1  0.13232248  0.99528487  0.15082897  1
  H  H171  1  0.23923249  0.79573865  0.19601183  1
  H  H172  1  0.15348389  0.54253033  0.30528226  1
  H  H173  1  0.05782647  0.69946594  0.42654755  1
  O  O174  1  0.00996852  0.71529101  0.04377574  1
  C  C175  1  0.10070396  0.58037539  0.45625674  1
  H  H176  1  0.23636179  0.90147924  0.20066211  1
  C  C177  1  0.01951247  0.71625979  0.27605927  1
  O  O178  1  0.00378897  0.54424553  0.03809359  1
  C  C179  1  0.14019456  0.91357152  0.00000667  1
  H  H180  1  0.22223408  0.82549727  0.46463185  1
  C  C181  1  0.18635610  0.79427526  0.46230591  1
  C  C182  1  0.01492228  0.90883099  0.00846766  1
  C  C183  1  0.03242338  0.60813702  0.56273528  1
  C  C184  1  0.16091972  0.76704139  0.52520467  1
  O  O185  1  0.07589469  0.78922821  0.68864128  1
  H  H186  1  0.09600580  0.50216829  0.67319141  1
  O  O187  1  0.18207209  0.70514079  0.89628020  1
  C  C188  1  0.13321875  0.96862997  0.97760583  1
  C  C189  1  0.16288783  0.95597492  0.80677798  1
  O  O190  1  0.19666678  0.58158686  0.55481005  1
  C  C191  1  0.14267564  0.98194339  0.50875566  1
  H  H192  1  0.02717274  0.57945483  0.80822934  1
  C  C193  1  0.13880122  0.59423097  0.58918515  1
  H  H194  1  0.04566660  0.81965974  0.53339949  1
  O  O195  1  0.13292020  0.60206838  0.65578212  1
  H  H196  1  0.23570543  0.54202001  0.65497680  1
  C  C197  1  0.01203852  0.50557688  0.73938868  1
  H  H198  1  0.17371087  0.78231155  0.58341377  1
  C  C199  1  0.21314021  0.72199013  0.94913245  1
  C  C200  1  0.20278939  0.88795428  0.60943565  1
  H  H201  1  0.24600508  0.61811574  0.64408996  1
  C  C202  1  0.08978548  0.59300300  0.53433505  1
  C  C203  1  0.22345084  0.87325049  0.68282626  1
  C  C204  1  0.20870665  0.98249351  0.76718723  1
  H  H205  1  0.15973659  0.87758308  0.59062937  1
  C  C206  1  0.03037998  0.76618553  0.67646329  1
  C  C207  1  0.01774054  0.96619457  0.99331912  1
  H  H208  1  0.09031702  0.70407093  0.56116923  1
  C  C209  1  0.03356490  0.53471849  0.80441090  1
  H  H210  1  0.18913055  0.84945814  0.71789390  1
  C  C211  1  0.10258871  0.96837789  0.79422994  1
  C  C212  1  0.24173444  0.57773560  0.61098957  1
  H  H213  1  0.08062299  0.53134778  0.91736314  1
  C  C214  1  0.24874702  0.97088151  0.96011675  1
  C  C215  1  0.06244117  0.50715759  0.86653476  1
  H  H216  1  0.06603429  0.95693057  0.83587639  1
  H  H217  1  0.15306713  0.98387971  0.57199186  1
  C  C218  1  0.24913358  0.91527064  0.98444819  1
  H  H219  1  0.02273657  0.62347468  0.62288535  1
  H  H220  1  0.17342235  0.92809173  0.85293765  1
  C  C221  1  0.07502030  0.99578614  0.97650815  1
  C  C222  1  0.24497806  0.91228096  0.55750342  1
  C  C223  1  0.18922177  0.99975147  0.95488596  1
  H  H224  1  0.09639400  0.75384219  0.97579060  1
  C  C225  1  0.00941853  0.78914677  0.53528611  1
  C  C226  1  0.11658099  0.72555207  0.51654102  1
  H  H227  1  0.46218216  0.05295875  0.43396084  1
  H  H228  1  0.34659921  0.13456020  0.13291038  1
  H  H229  1  0.44653765  0.25221692  0.45845476  1
  O  O230  1  0.36101947  0.16006683  0.35830597  1
  C  C231  1  0.43997434  0.21636398  0.25953652  1
  C  C232  1  0.37195048  0.20816576  0.37151174  1
  C  C233  1  0.41180301  0.24336450  0.32123934  1
  H  H234  1  0.42575269  0.17461522  0.23662842  1
  O  O235  1  0.34816888  0.23174491  0.43065491  1
  C  C236  1  0.45803509  0.33110547  0.30554028  1
  C  C237  1  0.25485283  0.27724563  0.27427382  1
  C  C238  1  0.30078721  0.14328725  0.14192198  1
  H  H239  1  0.28774701  0.10558099  0.25763150  1
  H  H240  1  0.42887135  0.48336711  0.15799757  1
  H  H241  1  0.37999215  0.00678691  0.10145102  1
  Zn  Zn242  1  0.28513385  0.29541407  0.44406140  1
  C  C243  1  0.26577963  0.12636039  0.20986179  1
  C  C244  1  0.41613748  0.29980053  0.34375348  1
  C  C245  1  0.44701370  0.03864795  0.19229381  1
  C  C246  1  0.48802990  0.08145461  0.21391204  1
  H  H247  1  0.39046230  0.31502384  0.39373843  1
  H  H248  1  0.30207249  0.26464459  0.28278844  1
  C  C249  1  0.39964428  0.46800267  0.39742537  1
  H  H250  1  0.49958426  0.23413891  0.16184427  1
  H  H251  1  0.44169864  0.39832996  0.22143912  1
  C  C252  1  0.43027661  0.07909141  0.06602828  1
  C  C253  1  0.49039251  0.42428905  0.44927741  1
  H  H254  1  0.31801630  0.41944503  0.41009169  1
  C  C255  1  0.48171173  0.41744749  0.19822577  1
  H  H256  1  0.35741989  0.01655106  0.32779815  1
  C  C257  1  0.39358954  0.38029878  0.47285521  1
  C  C258  1  0.41580486  0.03824922  0.11886100  1
  C  C259  1  0.36493549  0.42473153  0.42727349  1
  C  C260  1  0.48217466  0.16679314  0.03419706  1
  C  C261  1  0.46968976  0.12103238  0.08951462  1
  C  C262  1  0.46212782  0.46605534  0.40742716  1
  C  C263  1  0.26318168  0.16993261  0.09290752  1
  H  H264  1  0.40806306  0.07660615  0.00953347  1
  C  C265  1  0.47411310  0.46754091  0.16360837  1
  C  C266  1  0.49076010  0.30411625  0.24447677  1
  C  C267  1  0.47863230  0.24968560  0.21718159  1
  H  H268  1  0.46979815  0.37251121  0.32590065  1
  H  H269  1  0.25172312  0.06554999  0.08574799  1
  C  C270  1  0.49824241  0.12226572  0.16038030  1
  C  C271  1  0.49312982  0.23886559  0.46869062  1
  H  H272  1  0.25348057  0.46665254  0.12735877  1
  H  H273  1  0.26202412  0.10012029  0.45998782  1
  H  H274  1  0.42612455  0.14459512  0.48321658  1
  C  C275  1  0.45605804  0.38314948  0.48268964  1
  H  H276  1  0.25369230  0.03043114  0.49658557  1
  C  C277  1  0.47831122  0.07081403  0.48844099  1
  H  H278  1  0.32450970  0.23096768  0.00608668  1
  O  O279  1  0.25647592  0.39348247  0.01665017  1
  H  H280  1  0.35866959  0.35965571  0.93478262  1
  O  O281  1  0.32168474  0.10124548  0.60263494  1
  C  C282  1  0.38573001  0.04768892  0.88117051  1
  C  C283  1  0.29872702  0.20907508  0.78370835  1
  C  C284  1  0.29653019  0.17568303  0.71731516  1
  H  H285  1  0.33286122  0.16042070  0.68193751  1
  O  O286  1  0.40517214  0.22825495  0.68691825  1
  C  C287  1  0.35620883  0.21952771  0.81484296  1
  Zn  Zn288  1  0.39759626  0.29018002  0.59240693  1
  C  C289  1  0.25502491  0.22307019  0.92245772  1
  H  H290  1  0.40603579  0.43200983  0.66513195  1
  C  C291  1  0.40762925  0.22303801  0.75897565  1
  C  C292  1  0.36430740  0.22831180  0.89480513  1
  C  C293  1  0.31514946  0.22763829  0.94555649  1
  O  O294  1  0.45575447  0.21971402  0.79241722  1
  Zn  Zn295  1  0.29839892  0.35849019  0.58679504  1
  H  H296  1  0.46900990  0.30692541  0.73256464  1
  C  C297  1  0.28668471  0.09552592  0.88238777  1
  N  N298  1  0.34328204  0.32800196  0.67543397  1
  H  H299  1  0.47156711  0.18205007  0.61646216  1
  C  C300  1  0.31759567  0.04866047  0.89857723  1
  H  H301  1  0.32315026  0.29040378  0.68212467  1
  C  C302  1  0.45784822  0.12224756  0.51958240  1
  O  O303  1  0.40306840  0.08799261  0.84571596  1
  H  H304  1  0.40944771  0.22886635  0.92119174  1
  Zn  Zn305  1  0.48435494  0.14218105  0.85986473  1
  O  O306  1  0.44037909  0.49820914  0.93729597  1
  C  C307  1  0.35173082  0.33981657  0.81084584  1
  H  H308  1  0.31072487  0.13089136  0.86083774  1
  C  C309  1  0.39967958  0.44610275  0.78723154  1
  C  C310  1  0.36379767  0.36161100  0.73504701  1
  C  C311  1  0.39042478  0.42338944  0.86283341  1
  C  C312  1  0.48339449  0.01858487  0.72409666  1
  C  C313  1  0.38904914  0.41618774  0.72117320  1
  O  O314  1  0.45015834  0.16324795  0.97264963  1
  N  N315  1  0.49317401  0.28795559  0.59274393  1
  C  C316  1  0.40868979  0.45490247  0.93796700  1
  H  H317  1  0.41886427  0.48887102  0.78613033  1
  H  H318  1  0.33228864  0.29867023  0.82002303  1
  C  C319  1  0.36597698  0.37207645  0.87511576  1
  O  O320  1  0.39579473  0.42838516  0.99475644  1
  O  O321  1  0.42011912  0.00965921  0.90111232  1
  N  N322  1  0.35827957  0.33890071  0.50382700  1
  H  H323  1  0.45573085  0.05112339  0.69715468  1
  H  H324  1  0.47780507  0.34748701  0.51069958  1
  C  C325  1  0.25118002  0.15091577  0.67349107  1
  C  C326  1  0.48471668  0.14594625  0.58539745  1
  C  C327  1  0.49950803  0.33811419  0.70603061  1
  C  C328  1  0.27199650  0.11324740  0.61547735  1
  H  H329  1  0.49228068  0.24518435  0.91585170  1
  H  H330  1  0.48789379  0.39804976  0.80197636  1
  N  N331  1  0.31328347  0.97450808  0.13757533  1
  H  H332  1  0.41909972  0.73588604  0.38066883  1
  C  C333  1  0.49837358  0.51191501  0.36878554  1
  O  O334  1  0.47363507  0.58089395  0.09993534  1
  C  C335  1  0.28653940  0.96488554  0.37423243  1
  C  C336  1  0.48628977  0.79180970  0.32925776  1
  O  O337  1  0.48970757  0.92286003  0.38946693  1
  C  C338  1  0.39293592  0.94587914  0.38148195  1
  H  H339  1  0.35265255  0.73424702  0.13763936  1
  C  C340  1  0.49137557  0.66620350  0.45681714  1
  C  C341  1  0.47669522  0.78555332  0.08826400  1
  C  C342  1  0.46628920  0.74919534  0.37741288  1
  H  H343  1  0.44988936  0.74828125  0.07019585  1
  C  C344  1  0.32921640  0.75167811  0.25954485  1
  C  C345  1  0.27923544  0.92107171  0.42621951  1
  O  O346  1  0.47398812  0.54541032  0.32818712  1
  H  H347  1  0.29675115  0.78929186  0.37032034  1
  C  C348  1  0.32745778  0.88485177  0.45240167  1
  H  H349  1  0.42542849  0.87551410  0.44812042  1
  H  H350  1  0.32831672  0.88682347  0.32383770  1
  H  H351  1  0.26852891  0.73715988  0.08130599  1
  Zn  Zn352  1  0.37503073  0.94067019  0.19430629  1
  C  C353  1  0.45588521  0.95772155  0.36047727  1
  C  C354  1  0.31699208  0.79497415  0.31380954  1
  C  C355  1  0.33078809  0.84886476  0.28833088  1
  H  H356  1  0.32043690  0.70702156  0.27430546  1
  H  H357  1  0.44992393  0.82099366  0.30421416  1
  C  C358  1  0.35587477  0.82320486  0.16758446  1
  C  C359  1  0.34525647  0.76643110  0.18301929  1
  N  N360  1  0.35089954  0.86368304  0.21995210  1
  C  C361  1  0.38343794  0.90095835  0.43218890  1
  H  H362  1  0.37878081  0.83413813  0.11178113  1
  O  O363  1  0.47491686  0.99654885  0.31447803  1
  O  O364  1  0.30793534  0.83350646  0.00241236  1
  H  H365  1  0.49007704  0.75497517  0.20526259  1
  C  C366  1  0.49220828  0.82640240  0.03328122  1
  C  C367  1  0.34498643  0.97851976  0.35539534  1
  N  N368  1  0.43680517  0.99395476  0.22977032  1
  C  C369  1  0.49767272  0.78785987  0.16252287  1
  C  C370  1  0.25348624  0.98540708  0.15045758  1
  H  H371  1  0.25222087  0.99527250  0.35868708  1
  H  H372  1  0.37982421  0.50114407  0.36120445  1
  H  H373  1  0.31755496  0.84946695  0.49220480  1
  O  O374  1  0.43905382  0.65792093  0.47068533  1
  C  C375  1  0.41242663  0.68425028  0.83418958  1
  O  O376  1  0.26926567  0.71933647  0.94593289  1
  O  O377  1  0.37444522  0.72274064  0.81399330  1
  H  H378  1  0.47357117  0.63764486  0.94862810  1
  C  C379  1  0.47574552  0.70377138  0.86514289  1
  H  H380  1  0.34788653  0.98336440  0.93750018  1
  O  O381  1  0.46661550  0.85613596  0.90980585  1
  C  C382  1  0.30354270  0.92813420  0.58197913  1
  C  C383  1  0.32136300  0.90727712  0.65302033  1
  H  H384  1  0.44681347  0.95306899  0.65246194  1
  H  H385  1  0.47584500  0.77736594  0.79480642  1
  O  O386  1  0.36488343  0.87970962  0.78620535  1
  H  H387  1  0.36764828  0.91303280  0.67089289  1
  O  O388  1  0.48041825  0.84960940  0.62931299  1
  O  O389  1  0.42099643  0.78212817  0.95363093  1
  C  C390  1  0.28300285  0.88222689  0.70538194  1
  C  C391  1  0.31243068  0.86465268  0.77846939  1
  C  C392  1  0.49919669  0.67120490  0.92241623  1
  O  O393  1  0.28519059  0.83235779  0.81971079  1
  C  C394  1  0.45854993  0.81941345  0.96064431  1
  O  O395  1  0.39521351  0.63845254  0.84640301  1
  H  H396  1  0.28588372  0.57140853  0.58454742  1
  Zn  Zn397  1  0.40435599  0.92130396  0.88052655  1
  Zn  Zn398  1  0.33437782  0.77615713  0.90116873  1
  H  H399  1  0.33234941  0.94979024  0.54392744  1
  C  C400  1  0.30744329  0.88356265  0.99167714  1
  O  O401  1  0.35862161  0.90952767  0.98728463  1
  C  C402  1  0.48143689  0.96391748  0.69396355  1
  C  C403  1  0.29976424  0.99862099  0.93118662  1
  H  H404  1  0.25711410  0.97211024  0.77208496  1
  O  O405  1  0.67021829  0.16736023  0.35865299  1
  C  C406  1  0.61783551  0.16406137  0.36780234  1
  O  O407  1  0.58232895  0.13972007  0.30651693  1
  C  C408  1  0.58246835  0.19167708  0.42903110  1
  H  H409  1  0.61375238  0.11316996  0.28602540  1
  O  O410  1  0.73689549  0.19893542  0.00518305  1
  C  C411  1  0.60024949  0.31042756  0.08901618  1
  C  C412  1  0.52231792  0.20467762  0.41857696  1
  N  N413  1  0.53596808  0.33208807  0.20279804  1
  C  C414  1  0.66808676  0.31602721  0.38866814  1
  H  H415  1  0.50095233  0.19308731  0.36205521  1
  H  H416  1  0.73238958  0.02771491  0.10009239  1
  H  H417  1  0.66303532  0.18155415  0.20244206  1
  H  H418  1  0.58059826  0.24015417  0.26056037  1
  H  H419  1  0.66889604  0.27361352  0.36668061  1
  N  N420  1  0.70120975  0.36991284  0.49301347  1
  C  C421  1  0.66791599  0.23090337  0.10159922  1
  C  C422  1  0.72067755  0.19501422  0.07226823  1
  C  C423  1  0.58087992  0.01570885  0.08240169  1
  C  C424  1  0.64262951  0.21685857  0.17249765  1
  C  C425  1  0.59707058  0.24884406  0.20231129  1
  C  C426  1  0.53775890  0.38811765  0.19347711  1
  H  H427  1  0.53221113  0.15459884  0.17544978  1
  C  C428  1  0.66943981  0.05963240  0.00606078  1
  H  H429  1  0.68612020  0.44832471  0.49606538  1
  C  C430  1  0.61802653  0.21439223  0.48865569  1
  C  C431  1  0.64181284  0.41123348  0.38768439  1
  C  C432  1  0.64464235  0.27518694  0.05856047  1
  C  C433  1  0.63357154  0.35803057  0.35591695  1
  H  H434  1  0.60889477  0.35577454  0.30221672  1
  H  H435  1  0.73877902  0.27137095  0.21485789  1
  H  H436  1  0.57980921  0.34744300  0.06188202  1
  C  C437  1  0.57182050  0.04972811  0.01533012  1
  C  C438  1  0.70466709  0.32312995  0.45447285  1
  C  C439  1  0.57774725  0.29898534  0.16292229  1
  C  C440  1  0.52302609  0.49203624  0.12593735  1
  H  H441  1  0.62989062  0.39698234  0.16314265  1
  C  C442  1  0.58704466  0.41762824  0.15864452  1
  C  C443  1  0.68545993  0.03199743  0.07503403  1
  C  C444  1  0.57974871  0.46751265  0.12076966  1
  O  O445  1  0.74228372  0.16086047  0.11646312  1
  C  C446  1  0.67689236  0.41229331  0.45544686  1
  O  O447  1  0.73813043  0.42379755  0.18439806  1
  C  C448  1  0.63642825  0.01062201  0.11687060  1
  H  H449  1  0.53881030  0.00202866  0.10820797  1
  H  H450  1  0.61282251  0.49056972  0.08661149  1
  O  O451  1  0.51110049  0.20751663  0.04981442  1
  H  H452  1  0.61913973  0.45021201  0.36492800  1
  H  H453  1  0.72821284  0.28836008  0.48267348  1
  H  H454  1  0.51121091  0.08379250  0.27110102  1
  H  H455  1  0.74389511  0.15571045  0.48438973  1
  H  H456  1  0.53956644  0.42358995  0.45677184  1
  Zn  Zn457  1  0.56411765  0.15509134  0.72332509  1
  C  C458  1  0.58626779  0.24631315  0.54010955  1
  N  N459  1  0.56449684  0.18022150  0.83820593  1
  Zn  Zn460  1  0.60716798  0.10708632  0.87199570  1
  N  N461  1  0.63165399  0.20952106  0.69579243  1
  C  C462  1  0.68295534  0.19882184  0.66072975  1
  H  H463  1  0.68315117  0.15307303  0.64792418  1
  N  N464  1  0.53986824  0.08712655  0.79742951  1
  C  C465  1  0.71983328  0.29291143  0.65390683  1
  H  H466  1  0.67610862  0.23210816  0.82767256  1
  C  C467  1  0.57986041  0.23203597  0.87019721  1
  C  C468  1  0.62244839  0.26329193  0.70682599  1
  O  O469  1  0.57566689  0.42819980  0.95842509  1
  C  C470  1  0.66347138  0.30577544  0.68712454  1
  C  C471  1  0.63816834  0.25541554  0.85481666  1
  H  H472  1  0.57812566  0.26820728  0.73548237  1
  C  C473  1  0.52713912  0.03268112  0.78050108  1
  H  H474  1  0.58225009  0.05534299  0.63617801  1
  H  H475  1  0.59836773  0.34988262  0.54849538  1
  C  C476  1  0.52331004  0.26018568  0.53464109  1
  C  C477  1  0.52450967  0.04721458  0.53296866  1
  C  C478  1  0.53436120  0.26499485  0.90376968  1
  Zn  Zn479  1  0.68083123  0.47313497  0.82288383  1
  H  H480  1  0.61143904  0.26326218  0.58898462  1
  C  C481  1  0.72738035  0.23613085  0.63861651  1
  N  N482  1  0.52841354  0.12204009  0.62544790  1
  C  C483  1  0.50846255  0.38619411  0.74631886  1
  N  N484  1  0.61632495  0.06799607  0.97337208  1
  O  O485  1  0.73067076  0.42094292  0.72334870  1
  C  C486  1  0.61607203  0.40009416  0.92932696  1
  O  O487  1  0.60889534  0.49764502  0.74340446  1
  O  O488  1  0.66693700  0.42276617  0.91548051  1
  C  C489  1  0.54161910  0.31951044  0.91867635  1
  C  C490  1  0.55060171  0.42210721  0.70988240  1
  H  H491  1  0.61605592  0.44318372  0.62432989  1
  C  C492  1  0.64392998  0.31054802  0.87290764  1
  H  H493  1  0.52312923  0.05421512  0.99566894  1
  C  C494  1  0.57321765  0.36161807  0.60360906  1
  C  C495  1  0.59728647  0.34396294  0.90194194  1
  H  H496  1  0.68862588  0.32812746  0.87510874  1
  O  O497  1  0.68147914  0.05834316  0.81405410  1
  H  H498  1  0.65219733  0.34808527  0.69887817  1
  O  O499  1  0.67708838  0.03889853  0.69288048  1
  C  C500  1  0.56103432  0.47374733  0.75496434  1
  C  C501  1  0.58379256  0.41054182  0.64291211  1
  C  C502  1  0.69837992  0.06541471  0.74574283  1
  H  H503  1  0.50400739  0.34442332  0.94085272  1
  C  C504  1  0.54763956  0.07422674  0.59718801  1
  O  O505  1  0.52575202  0.48521110  0.80677465  1
  C  C506  1  0.52848983  0.32506703  0.63482349  1
  H  H507  1  0.70052255  0.08307905  0.96641471  1
  H  H508  1  0.74816931  0.40576071  0.58309670  1
  H  H509  1  0.54575722  0.00778848  0.51854010  1
  H  H510  1  0.65863192  0.28186217  0.99755892  1
  H  H511  1  0.66321068  0.20417710  0.50281493  1
  C  C512  1  0.68192380  0.67454839  0.04654769  1
  C  C513  1  0.64449685  0.72158050  0.03695850  1
  C  C514  1  0.68075356  0.64719663  0.11538185  1
  C  C515  1  0.64201787  0.66560308  0.17432263  1
  C  C516  1  0.71723930  0.89224262  0.25096934  1
  H  H517  1  0.70564375  0.61040870  0.12689874  1
  C  C518  1  0.51313525  0.71982961  0.41009436  1
  C  C519  1  0.53517419  0.86761834  0.05089532  1
  H  H520  1  0.60639727  0.70276374  0.43491869  1
  C  C521  1  0.71493088  0.92178662  0.31993153  1
  C  C522  1  0.54870732  0.79846045  0.31346587  1
  H  H523  1  0.66041368  0.95492805  0.41544679  1
  N  N524  1  0.56555128  0.83408486  0.25232974  1
  C  C525  1  0.64365834  0.63312593  0.25021473  1
  O  O526  1  0.60479732  0.64120627  0.30422051  1
  H  H527  1  0.56773187  0.76849308  0.08282745  1
  H  H528  1  0.64300266  0.78196601  0.34733191  1
  O  O529  1  0.68016553  0.59561975  0.25646192  1
  C  C530  1  0.51211667  0.54906636  0.08425763  1
  C  C531  1  0.61445796  0.86934892  0.26600922  1
  C  C532  1  0.61377380  0.89977637  0.33738518  1
  O  O533  1  0.70780529  0.75612521  0.22869061  1
  C  C534  1  0.57488065  0.72837554  0.40327055  1
  C  C535  1  0.59995953  0.73523211  0.09306199  1
  H  H536  1  0.56944045  0.90535922  0.36829845  1
  C  C537  1  0.55466873  0.87366227  0.12483790  1
  O  O538  1  0.54772645  0.55819347  0.03078337  1
  C  C539  1  0.59445191  0.77225530  0.35625165  1
  H  H540  1  0.56813235  0.71932831  0.20763258  1
  H  H541  1  0.58526147  0.90633015  0.14166981  1
  H  H542  1  0.66506958  0.84715417  0.16212756  1
  C  C543  1  0.59988876  0.70726338  0.16193787  1
  H  H544  1  0.74758237  0.64085613  0.36016735  1
  C  C545  1  0.66685429  0.86763158  0.21792364  1
  H  H546  1  0.73961890  0.75295513  0.35587172  1
  C  C547  1  0.66226735  0.92926035  0.36264162  1
  H  H548  1  0.72763839  0.77501827  0.04253033  1
  H  H549  1  0.55200418  0.89708153  0.00700270  1
  O  O550  1  0.66938111  0.61752049  0.46331702  1
  C  C551  1  0.70934034  0.58776586  0.49637842  1
  O  O552  1  0.55521358  0.50795708  0.38008227  1
  Zn  Zn553  1  0.59457987  0.58750521  0.40187970  1
  H  H554  1  0.64476905  0.99008562  0.17304918  1
  C  C555  1  0.53881163  0.83272219  0.18113425  1
  H  H556  1  0.67489760  0.84759260  0.46390406  1
  H  H557  1  0.71083772  0.65665875  0.00286364  1
  H  H558  1  0.74899111  0.52703719  0.20575080  1
  C  C559  1  0.73492129  0.53415743  0.08249206  1
  H  H560  1  0.69505358  0.50550482  0.07766181  1
  O  O561  1  0.52900900  0.63071135  0.47989256  1
  H  H562  1  0.57493575  0.80895605  0.83840554  1
  C  C563  1  0.67932849  0.65398153  0.66045546  1
  C  C564  1  0.68094953  0.62096592  0.72723230  1
  C  C565  1  0.63383488  0.62191653  0.78042267  1
  C  C566  1  0.63458661  0.58795132  0.85147688  1
  Zn  Zn567  1  0.53489134  0.51520653  0.92717393  1
  C  C568  1  0.68985433  0.76387658  0.92676049  1
  O  O569  1  0.54666406  0.82295803  0.71154862  1
  O  O570  1  0.59049203  0.58724505  0.89560246  1
  C  C571  1  0.69847513  0.76722288  0.84474061  1
  C  C572  1  0.73204695  0.78412086  0.98084986  1
  C  C573  1  0.63188775  0.69139319  0.65047670  1
  C  C574  1  0.58672844  0.69285453  0.70646874  1
  H  H575  1  0.59345749  0.90178704  0.78693647  1
  H  H576  1  0.57291207  0.66107247  0.99481947  1
  H  H577  1  0.70856764  0.90349495  0.65958589  1
  C  C578  1  0.51279524  0.85783014  0.68650049  1
  C  C579  1  0.51409460  0.91907601  0.72394450  1
  C  C580  1  0.58403275  0.65691088  0.76985826  1
  C  C581  1  0.50158338  0.75279375  0.83802883  1
  C  C582  1  0.55339673  0.69057478  0.95054689  1
  C  C583  1  0.71345953  0.83328871  0.50015918  1
  O  O584  1  0.69827307  0.55940740  0.55357680  1
  H  H585  1  0.55192513  0.72412002  0.70975852  1
  C  C586  1  0.74428190  0.79815022  0.81692414  1
  H  H587  1  0.66905311  0.74288924  0.80696753  1
  C  C588  1  0.55683468  0.77114232  0.86369016  1
  H  H589  1  0.63298611  0.71956548  0.60130342  1
  C  C590  1  0.56002415  0.93344845  0.77532541  1
  O  O591  1  0.67920983  0.55834607  0.86175679  1
  H  H592  1  0.54768547  0.65908488  0.81291827  1
  N  N593  1  0.69809777  0.80302687  0.56212790  1
  N  N594  1  0.63967736  0.74111549  0.96148683  1
  C  C595  1  0.58416925  0.73796946  0.92591065  1
  C  C596  1  0.56479188  0.98692888  0.80715128  1
  H  H597  1  0.71599360  0.64820073  0.61915821  1
  H  H598  1  0.72370824  0.75576076  0.64430943  1
  C  C599  1  0.74380995  0.78413392  0.60194468  1
  H  H600  1  0.72046642  0.59489175  0.73431221  1
  H  H601  1  0.60100656  0.99652764  0.84411976  1
  C  C602  1  0.80909232  0.29366709  0.29436371  1
  O  O603  1  0.81068145  0.39014637  0.11567665  1
  H  H604  1  0.81223214  0.22490736  0.11720764  1
  C  C605  1  0.88543466  0.39991390  0.24738410  1
  Zn  Zn606  1  0.87474769  0.42215073  0.04094128  1
  C  C607  1  0.89016977  0.42887606  0.38428765  1
  C  C608  1  0.82595430  0.41907779  0.25034590  1
  H  H609  1  0.95919976  0.38731692  0.31867206  1
  H  H610  1  0.79536374  0.22314147  0.38891710  1
  C  C611  1  0.79737130  0.43973936  0.31540472  1
  O  O612  1  0.93121139  0.36459695  0.09966811  1
  C  C613  1  0.81086342  0.18223288  0.39537473  1
  C  C614  1  0.91422766  0.40458930  0.31782717  1
  C  C615  1  0.78923443  0.40885908  0.18020819  1
  H  H616  1  0.90621572  0.37964883  0.19525274  1
  C  C617  1  0.82785839  0.44727788  0.38309243  1
  N  N618  1  0.92350187  0.42898687  0.45497182  1
  C  C619  1  0.90595155  0.26962097  0.24424276  1
  C  C620  1  0.92267378  0.29631598  0.48984909  1
  H  H621  1  0.96419028  0.20855788  0.09808702  1
  C  C622  1  0.87017030  0.29569816  0.30105658  1
  N  N623  1  0.88557793  0.24421857  0.18133325  1
  C  C624  1  0.80773880  0.09359023  0.44417010  1
  H  H625  1  0.88596034  0.18439506  0.30761291  1
  C  C626  1  0.95330678  0.19859603  0.49145661  1
  H  H627  1  0.89362160  0.31283302  0.35456538  1
  C  C628  1  0.85269933  0.07544187  0.39361924  1
  C  C629  1  0.86046508  0.16342309  0.35353404  1
  O  O630  1  0.98346699  0.02976399  0.34176715  1
  O  O631  1  0.99353682  0.20741107  0.05824638  1
  H  H632  1  0.80706124  0.46598159  0.43268391  1
  N  N633  1  0.88151520  0.11070640  0.34745036  1
  C  C634  1  0.82618023  0.24876241  0.17068620  1
  H  H635  1  0.95454106  0.26321348  0.23988359  1
  C  C636  1  0.77933303  0.14566358  0.44455142  1
  H  H637  1  0.77603955  0.08863731  0.03744973  1
  C  C638  1  0.78704658  0.27034591  0.22505633  1
  H  H639  1  0.98056481  0.16244279  0.46916280  1
  C  C640  1  0.95508860  0.25130587  0.45797098  1
  H  H641  1  0.92836888  0.33688042  0.46082261  1
  H  H642  1  0.82055649  0.38544243  0.47649041  1
  H  H643  1  0.91036196  0.31193219  0.00549932  1
  C  C644  1  0.99674301  0.25807566  0.38921566  1
  H  H645  1  0.77840178  0.30795026  0.33934800  1
  H  H646  1  0.75007107  0.45126742  0.31040964  1
  O  O647  1  0.85852951  0.07098495  0.01358088  1
  C  C648  1  0.82012111  0.10506198  0.01651491  1
  H  H649  1  0.87074409  0.49842305  0.16811924  1
  H  H650  1  0.79432435  0.06105968  0.48666744  1
  C  C651  1  0.98513683  0.43422339  0.45902230  1
  C  C652  1  0.98726893  0.35969315  0.07707130  1
  H  H653  1  0.98183008  0.48760939  0.35308199  1
  H  H654  1  0.87392163  0.00027846  0.04608983  1
  C  C655  1  0.82131938  0.13764058  0.63145213  1
  H  H656  1  0.92253599  0.14929136  0.58621756  1
  H  H657  1  0.90933436  0.26630525  0.86605358  1
  C  C658  1  0.77229011  0.45377513  0.71504920  1
  C  C659  1  0.79407143  0.41954674  0.58415133  1
  H  H660  1  0.88873206  0.03906510  0.87433411  1
  C  C661  1  0.77791869  0.13121975  0.78812516  1
  H  H662  1  0.81929204  0.15074621  0.99871618  1
  H  H663  1  0.78462880  0.32881534  0.86372617  1
  O  O664  1  0.91828286  0.43761635  0.86009697  1
  C  C665  1  0.81842228  0.44671945  0.64785874  1
  C  C666  1  0.90973055  0.31506935  0.70815033  1
  C  C667  1  0.91276282  0.35801971  0.76034862  1
  H  H668  1  0.94764466  0.30614008  0.66954536  1
  H  H669  1  0.84728681  0.07166672  0.74085003  1
  H  H670  1  0.83563230  0.14023420  0.57011851  1
  C  C671  1  0.91884741  0.18883262  0.55617871  1
  C  C672  1  0.82546596  0.16611937  0.76975667  1
  C  C673  1  0.83982422  0.17581025  0.68962987  1
  H  H674  1  0.96264785  0.17080987  0.84853103  1
  C  C675  1  0.81418963  0.27795229  0.76588571  1
  C  C676  1  0.96384760  0.05559428  0.96865944  1
  H  H677  1  0.85819440  0.32189593  0.57214174  1
  C  C678  1  0.77676746  0.09920411  0.65223137  1
  C  C679  1  0.86594240  0.35912672  0.81427938  1
  H  H680  1  0.84595618  0.19044172  0.81409794  1
  C  C681  1  0.81729451  0.32268418  0.81792150  1
  O  O682  1  0.84401440  0.41268626  0.92973969  1
  C  C683  1  0.88386021  0.23350885  0.58865429  1
  N  N684  1  0.86147708  0.22663731  0.66407178  1
  C  C685  1  0.88626193  0.28662144  0.55231031  1
  H  H686  1  0.94687673  0.39118656  0.75878429  1
  C  C687  1  0.87890819  0.40501743  0.87167662  1
  C  C688  1  0.86263014  0.27342649  0.71191063  1
  H  H689  1  0.76272191  0.12178079  0.84566811  1
  C  C690  1  0.87571993  0.46920130  0.65370326  1
  C  C691  1  0.75159930  0.10220887  0.72682071  1
  C  C692  1  0.95021184  0.30976924  0.96619764  1
  C  C693  1  0.91644894  0.46054384  0.59331051  1
  H  H694  1  0.77976247  0.24717144  0.77015373  1
  O  O695  1  0.92122000  0.14143996  0.95497280  1
  H  H696  1  0.95913192  0.47877517  0.59165364  1
  C  C697  1  0.83473826  0.41108566  0.52599756  1
  H  H698  1  0.96992251  0.09891788  0.74503270  1
  H  H699  1  0.89022154  0.49232377  0.70563432  1
  C  C700  1  0.98582456  0.18162371  0.79613180  1
  C  C701  1  0.91613228  0.09573424  0.97438726  1
  C  C702  1  0.94997119  0.28247309  0.89483163  1
  C  C703  1  0.98737011  0.14061753  0.73849647  1
  C  C704  1  0.87913751  0.03575246  0.74745745  1
  C  C705  1  0.89891867  0.01667037  0.81961730  1
  H  H706  1  0.75633384  0.07079745  0.61219777  1
  H  H707  1  0.76785595  0.22063896  0.60740696  1
  C  C708  1  0.89388791  0.43418239  0.52488463  1
  O  O709  1  0.77579814  0.49041869  0.76342538  1
  H  H710  1  0.89636265  0.01626217  0.62406102  1
  C  C711  1  0.90265943  0.00587948  0.68596625  1
  H  H712  1  0.75703097  0.32205933  0.64875356  1
  C  C713  1  0.78763577  0.74580268  0.34958130  1
  O  O714  1  0.79849391  0.94435848  0.08066655  1
  H  H715  1  0.87236541  0.51052671  0.31417527  1
  H  H716  1  0.85032949  0.64291625  0.30896734  1
  H  H717  1  0.85514803  0.64863409  0.08277199  1
  C  C718  1  0.80874087  0.74218528  0.27511516  1
  O  O719  1  0.76752430  0.97515862  0.41468141  1
  C  C720  1  0.83590961  0.90938995  0.09749191  1
  C  C721  1  0.96778319  0.72048996  0.31403217  1
  C  C722  1  0.91433301  0.97173964  0.03354988  1
  O  O723  1  0.81924127  0.94185014  0.32092118  1
  O  O724  1  0.82607787  0.87096959  0.14451599  1
  C  C725  1  0.95141498  0.72425614  0.15763521  1
  C  C726  1  0.77082500  0.58956801  0.46347791  1
  C  C727  1  0.79618262  0.59091936  0.01523795  1
  C  C728  1  0.88250663  0.73595000  0.41032249  1
  O  O729  1  0.77679710  0.74461196  0.14395297  1
  C  C730  1  0.95076459  0.56957918  0.30644782  1
  C  C731  1  0.99286974  0.85924950  0.03481409  1
  C  C732  1  0.90890421  0.73023073  0.33271988  1
  H  H733  1  0.83014199  0.60226459  0.20638880  1
  C  C734  1  0.75898543  0.74630819  0.21260105  1
  C  C735  1  0.88448037  0.58910250  0.40657251  1
  C  C736  1  0.89209240  0.73245357  0.18481054  1
  C  C737  1  0.93166120  0.86735428  0.05975795  1
  H  H738  1  0.89974354  0.88625477  0.35687732  1
  H  H739  1  0.90726269  0.83222400  0.07782443  1
  C  C740  1  0.84043856  0.61819487  0.36162241  1
  C  C741  1  0.76594426  0.54589505  0.15091952  1
  C  C742  1  0.95015601  0.87958428  0.35516845  1
  O  O743  1  0.90299869  0.93181654  0.48931633  1
  C  C744  1  0.90403709  0.52411422  0.19586970  1
  C  C745  1  0.87116774  0.55797134  0.47428175  1
  C  C746  1  0.81990932  0.74349958  0.41759864  1
  H  H747  1  0.95881881  0.85307453  0.23163238  1
  H  H748  1  0.78268370  0.86947184  0.43163364  1
  C  C749  1  0.87016978  0.73550548  0.25861476  1
  Zn  Zn750  1  0.87508480  0.99802559  0.41786792  1
  H  H751  1  0.85477249  0.73427546  0.14289654  1
  H  H752  1  0.79619163  0.75190457  0.47194925  1
  C  C753  1  0.78440036  0.61810297  0.39303571  1
  C  C754  1  0.80864512  0.58802664  0.15279840  1
  C  C755  1  0.90492758  0.53394204  0.27462707  1
  O  O756  1  0.90386173  0.72531250  0.02962957  1
  C  C757  1  0.94952509  0.54898089  0.15266739  1
  C  C758  1  0.95869360  0.53107991  0.06940820  1
  C  C759  1  0.90258354  0.91788021  0.05690138  1
  C  C760  1  0.97959904  0.86047674  0.28940693  1
  N  N761  1  0.94524342  0.58553757  0.38492331  1
  C  C762  1  0.92030916  0.73933919  0.47926181  1
  C  C763  1  0.96443631  0.72223614  0.07561145  1
  C  C764  1  0.82048482  0.61475261  0.08348760  1
  C  C765  1  0.77078060  0.94940659  0.35467206  1
  C  C766  1  0.97097899  0.77746505  0.47504221  1
  O  O767  1  0.91711801  0.50216845  0.03738602  1
  H  H768  1  0.75988573  0.88710200  0.22146647  1
  H  H769  1  0.98510829  0.79346022  0.41951521  1
  C  C770  1  0.95757870  0.91782826  0.49002719  1
  C  C771  1  0.98618056  0.89250825  0.41982164  1
  C  C772  1  0.99061443  0.59094254  0.43692952  1
  N  N773  1  0.75418541  0.55253405  0.01544947  1
  H  H774  1  0.99342267  0.96307744  0.16502040  1
  C  C775  1  0.99569573  0.59307409  0.25813625  1
  C  C776  1  0.99807509  0.57945276  0.18128461  1
  C  C777  1  0.77458516  0.84383567  0.48269232  1
  H  H778  1  0.90405159  0.53131914  0.49795984  1
  C  C779  1  0.83890358  0.85146604  0.84661915  1
  C  C780  1  0.78575065  0.81669745  0.87122201  1
  O  O781  1  0.84663350  0.85786674  0.76072687  1
  O  O782  1  0.87698182  0.60727902  0.84950932  1
  C  C783  1  0.90784564  0.71713109  0.55376098  1
  H  H784  1  0.88777548  0.87491728  0.76249435  1
  C  C785  1  0.77984753  0.94480755  0.73187947  1
  H  H786  1  0.76457327  0.94539342  0.60840089  1
  C  C787  1  0.85702441  0.67669558  0.55712789  1
  C  C788  1  0.85204224  0.65733875  0.63077581  1
  H  H789  1  0.95499022  0.93306243  0.65002431  1
  C  C790  1  0.85748954  0.64566256  0.70637482  1
  O  O791  1  0.98889716  0.92217822  0.54780507  1
  C  C792  1  0.82173564  0.82595169  0.52862653  1
  C  C793  1  0.92382573  0.64571051  0.81401137  1
  H  H794  1  0.93868649  0.62164224  0.53447976  1
  C  C795  1  0.78275178  0.81030217  0.95224784  1
  H  H796  1  0.95585348  0.72452335  0.93724442  1
  H  H797  1  0.83034511  0.61991869  0.74207587  1
  H  H798  1  0.77632067  0.91438911  0.77921344  1
  H  H799  1  0.75410325  0.98112648  0.75384602  1
  H  H800  1  0.95014315  0.94782441  0.87840452  1
  C  C801  1  0.91308311  0.66696009  0.73801854  1
  C  C802  1  0.96170030  0.99990729  0.99580011  1
  H  H803  1  0.80043922  0.53195088  0.55230919  1
  O  O804  1  0.87150847  0.87280734  0.88994549  1
  N  N805  1  0.95083939  0.93717798  0.76639542  1
  H  H806  1  0.80413355  0.61045049  0.95580986  1
  C  C807  1  0.89761814  0.56982155  0.90162388  1
  C  C808  1  0.99521231  0.76397845  0.60614985  1
  C  C809  1  0.94598790  0.72768903  0.61967868  1
  H  H810  1  0.87265750  0.73992239  0.91783953  1
  C  C811  1  0.80520890  0.79024364  0.58954752  1
  C  C812  1  0.93220497  0.96710930  0.82528112  1
  C  C813  1  0.94897361  0.70566585  0.69761347  1
  H  H814  1  0.93573385  0.54917420  0.87274134  1
  C  C815  1  0.75801682  0.91459973  0.65574949  1
  C  C816  1  0.91050296  0.73052222  0.96161968  1
  C  C817  1  0.93650269  0.95801957  0.69897404  1
  O  O818  1  0.97011581  0.65370445  0.84408876  1
  H  H819  1  0.86950376  0.83401420  0.51549694  1
  O  O820  1  0.99532644  0.72622968  0.73293152  1
  H  H821  1  0.99658807  0.52319588  0.68377706  1
  H  H822  1  0.86431781  0.53814504  0.91954264  1
  H  H823  1  0.91727162  0.58551065  0.95758968  1
  H  H824  1  0.82804813  0.66358353  0.50781760  1
  C  C825  1  0.98214062  0.60820748  0.51577422  1
  H  H826  1  0.82600693  0.95633900  0.72537216  1
  H  H827  1  0.83920284  0.76445372  0.61688970  1
  H  H828  1  0.78121366  0.87874981  0.63942597  1
  H  H829  1  0.75001406  0.80763155  0.75791707  1
  H  H830  1  0.82102980  0.82376909  0.98835548  1
  C  C831  1  0.81351898  0.55807318  0.50484511  1
