# generated using pymatgen
data_CuH14(C11O2)2
_symmetry_space_group_name_H-M   'P 1'
_cell_length_a   10.26486195
_cell_length_b   31.02742900
_cell_length_c   36.89758518
_cell_angle_alpha   90.00000000
_cell_angle_beta   90.00000000
_cell_angle_gamma   90.00000000
_symmetry_Int_Tables_number   1
_chemical_formula_structural   CuH14(C11O2)2
_chemical_formula_sum   'Cu24 H336 C528 O96'
_cell_volume   11751.59585510
_cell_formula_units_Z   24
loop_
 _symmetry_equiv_pos_site_id
 _symmetry_equiv_pos_as_xyz
  1  'x, y, z'
loop_
 _atom_site_type_symbol
 _atom_site_label
 _atom_site_symmetry_multiplicity
 _atom_site_fract_x
 _atom_site_fract_y
 _atom_site_fract_z
 _atom_site_occupancy
  O  O0  1  0.11614038  0.16092629  0.16504277  1
  Cu  Cu1  1  0.17502153  0.05740161  0.18757080  1
  C  C2  1  0.07669791  0.13968613  0.19287269  1
  C  C3  1  0.14007436  0.21462012  0.17047785  1
  H  H4  1  0.24525636  0.20439800  0.17523403  1
  H  H5  1  0.33362891  0.17988980  0.07740980  1
  C  C6  1  0.08771542  0.23159363  0.20637591  1
  H  H7  1  0.35424880  0.14043846  0.01860611  1
  O  O8  1  0.05179301  0.09816848  0.19048233  1
  O  O9  1  0.30314281  0.01718460  0.18211583  1
  C  C10  1  0.03773392  0.22730866  0.01480054  1
  C  C11  1  0.41734539  0.04705431  0.04034079  1
  H  H12  1  0.37591902  0.05249403  0.11535140  1
  C  C13  1  0.06165078  0.20278497  0.23462228  1
  C  C14  1  0.41841463  0.18523392  0.06155559  1
  C  C15  1  0.42838222  0.16305926  0.02953131  1
  H  H16  1  0.43564338  0.07981222  0.05155361  1
  C  C17  1  0.42917815  0.03967320  0.00297712  1
  C  C18  1  0.05920366  0.15960518  0.22601879  1
  H  H19  1  0.15304920  0.23825930  0.11471769  1
  H  H20  1  0.12567566  0.00012741  0.02780357  1
  C  C21  1  0.38479326  0.01894745  0.10370390  1
  C  C22  1  0.40319818  0.01096064  0.06455166  1
  H  H23  1  0.45419347  0.21559675  0.13185180  1
  O  O24  1  0.13085971  0.03332999  0.23270755  1
  C  C25  1  0.04898816  0.00208754  0.23933974  1
  C  C26  1  0.14511087  0.24870446  0.14164180  1
  H  H27  1  0.02459495  0.13846287  0.24796144  1
  C  C28  1  0.48177361  0.46765143  0.09094877  1
  C  C29  1  0.02226787  0.26986843  0.02471104  1
  H  H30  1  0.48843772  0.41907206  0.04918298  1
  H  H31  1  0.06235568  0.29577062  0.00765859  1
  C  C32  1  0.17726802  0.32729576  0.12071947  1
  C  C33  1  0.34092729  0.35117938  0.23619441  1
  H  H34  1  0.07735369  0.28887081  0.24103212  1
  C  C35  1  0.05278750  0.43180180  0.01576394  1
  C  C36  1  0.39134800  0.37850338  0.17416731  1
  H  H37  1  0.49893190  0.38233481  0.08580871  1
  C  C38  1  0.15318249  0.44967635  0.10780299  1
  C  C39  1  0.15058966  0.29270417  0.15033733  1
  C  C40  1  0.23017345  0.31575662  0.08728604  1
  H  H41  1  0.27829089  0.48535228  0.06866209  1
  C  C42  1  0.44337511  0.43506911  0.11993313  1
  H  H43  1  0.11435938  0.38139464  0.15173004  1
  C  C44  1  0.04288752  0.49414699  0.15204119  1
  H  H45  1  0.42519901  0.32709107  0.13118734  1
  H  H46  1  0.40417450  0.27168088  0.05308409  1
  C  C47  1  0.05337923  0.45572237  0.13435250  1
  C  C48  1  0.46162855  0.39084294  0.11183609  1
  C  C49  1  0.25640327  0.34430862  0.05935090  1
  C  C50  1  0.34763230  0.33251564  0.02877236  1
  C  C51  1  0.42680493  0.36096056  0.13820866  1
  C  C52  1  0.14951956  0.37105056  0.12480724  1
  C  C53  1  0.10305152  0.30625520  0.18593604  1
  H  H54  1  0.30406269  0.43084826  0.20550279  1
  C  C55  1  0.23037937  0.38930375  0.06458421  1
  C  C56  1  0.17536160  0.40261156  0.09729102  1
  C  C57  1  0.34904748  0.42227219  0.18016663  1
  C  C58  1  0.37544051  0.45067731  0.15170894  1
  C  C59  1  0.09064012  0.27684062  0.21411044  1
  H  H60  1  0.35682351  0.48479662  0.15389493  1
  C  C61  1  0.41975057  0.29291650  0.02886733  1
  C  C62  1  0.37296151  0.36626119  0.00255452  1
  H  H63  1  0.10332999  0.34120202  0.19196768  1
  C  C64  1  0.21292886  0.48745592  0.09284454  1
  H  H65  1  0.24653875  0.28160177  0.08047928  1
  H  H66  1  0.36511358  0.31184003  0.19112648  1
  C  C67  1  0.09363113  0.47302138  0.02065606  1
  H  H68  1  0.27680350  0.41318367  0.04450923  1
  C  C69  1  0.37137529  0.34576394  0.20097530  1
  H  H70  1  0.06392966  0.48734738  0.04782035  1
  H  H71  1  0.33321818  0.38441179  0.24627173  1
  H  H72  1  0.31501958  0.39700018  0.00183457  1
  C  C73  1  0.19625463  0.49375588  0.00121958  1
  C  C74  1  0.23698870  0.16321294  0.37235880  1
  C  C75  1  0.22665144  0.16584693  0.40865387  1
  C  C76  1  0.23395220  0.12362612  0.42749461  1
  H  H77  1  0.21591971  0.19665474  0.42480082  1
  C  C78  1  0.26128962  0.08408413  0.40905780  1
  H  H79  1  0.27859037  0.08405446  0.37945475  1
  H  H80  1  0.25133606  0.13100123  0.35996731  1
  C  C81  1  0.22053387  0.19864176  0.34833798  1
  O  O82  1  0.22058117  0.19245797  0.31319991  1
  C  C83  1  0.19846941  0.12321629  0.46520648  1
  C  C84  1  0.20920379  0.04406065  0.46446181  1
  C  C85  1  0.24040370  0.04476036  0.42637811  1
  C  C86  1  0.18847467  0.08344890  0.48397994  1
  H  H87  1  0.17964360  0.15296027  0.48140212  1
  Cu  Cu88  1  0.29986179  0.22737912  0.28202760  1
  O  O89  1  0.21812685  0.23627056  0.36030860  1
  C  C90  1  0.08583929  0.04931025  0.33235401  1
  H  H91  1  0.12788951  0.05013437  0.30495748  1
  H  H92  1  0.42472398  0.07641258  0.46421389  1
  H  H93  1  0.25783122  0.01576543  0.41171457  1
  C  C94  1  0.02948773  0.08522955  0.34775305  1
  H  H95  1  0.04271052  0.11763839  0.33403053  1
  C  C96  1  0.07585055  0.01075820  0.35306165  1
  O  O97  1  0.31825998  0.21852483  0.46885023  1
  H  H98  1  0.03146780  0.21367283  0.26212793  1
  C  C99  1  0.00547007  0.00854844  0.38650056  1
  H  H100  1  0.46966337  0.20305521  0.35999075  1
  H  H101  1  0.29306082  0.24700960  0.46658179  1
  C  C102  1  0.47099095  0.06149485  0.48970740  1
  O  O103  1  0.46468129  0.20023614  0.29009351  1
  H  H104  1  0.48593444  0.20915650  0.42973114  1
  C  C105  1  0.20566521  0.00017185  0.48250387  1
  H  H106  1  0.00388301  0.28806784  0.40035138  1
  C  C107  1  0.26327708  0.47422047  0.47883681  1
  C  C108  1  0.17681925  0.39984107  0.48551627  1
  H  H109  1  0.31571437  0.49846231  0.46060621  1
  H  H110  1  0.00742749  0.34625015  0.35643877  1
  H  H111  1  0.32089570  0.38195231  0.38860633  1
  C  C112  1  0.29627096  0.42757542  0.42849235  1
  H  H113  1  0.33725373  0.45405735  0.41308264  1
  O  O114  1  0.16463473  0.36149078  0.47178546  1
  O  O115  1  0.33936573  0.27759497  0.25339048  1
  H  H116  1  0.32455602  0.30060147  0.49190260  1
  O  O117  1  0.22060386  0.31557702  0.42131740  1
  C  C118  1  0.28357781  0.38712425  0.41681235  1
  C  C119  1  0.22605464  0.35083933  0.43441850  1
  C  C120  1  0.24897747  0.43202590  0.46490586  1
  C  C121  1  0.32344519  0.31714975  0.26118927  1
  O  O122  1  0.28637105  0.32598112  0.29416560  1
  Cu  Cu123  1  0.25465556  0.28244866  0.32836715  1
  C  C124  1  0.21284360  0.21082357  0.60929025  1
  C  C125  1  0.06229528  0.16611430  0.57421860  1
  C  C126  1  0.21656535  0.06236457  0.67981678  1
  Cu  Cu127  1  0.28718031  0.16929418  0.67568788  1
  O  O128  1  0.23565943  0.21380426  0.70767540  1
  H  H129  1  0.30849947  0.06701524  0.66642879  1
  O  O130  1  0.25453718  0.12605771  0.71326937  1
  C  C131  1  0.17791103  0.09437864  0.70531058  1
  H  H132  1  0.23664430  0.02754174  0.53760012  1
  C  C133  1  0.16262139  0.17005248  0.59703945  1
  O  O134  1  0.30636118  0.20932194  0.63513781  1
  H  H135  1  0.21230759  0.14142947  0.60697112  1
  H  H136  1  0.15313331  0.08736629  0.60381790  1
  C  C137  1  0.08358442  0.08531464  0.58096416  1
  O  O138  1  0.36494890  0.12836342  0.64500084  1
  O  O139  1  0.07194728  0.09060210  0.72374130  1
  H  H140  1  0.37377510  0.10891490  0.58533552  1
  H  H141  1  0.39451332  0.11621437  0.51906403  1
  C  C142  1  0.31893470  0.24082271  0.72281971  1
  C  C143  1  0.03093814  0.12263138  0.56250975  1
  H  H144  1  0.35758926  0.03906810  0.62915942  1
  H  H145  1  0.08855211  0.01787145  0.58379167  1
  C  C146  1  0.13881107  0.03071463  0.67062266  1
  C  C147  1  0.04559812  0.04421001  0.56991755  1
  O  O148  1  0.16831102  0.24555685  0.59919305  1
  H  H149  1  0.01388697  0.19456398  0.56540319  1
  C  C150  1  0.45103696  0.08710082  0.52004525  1
  H  H151  1  0.16628810  0.08374791  0.51247204  1
  C  C152  1  0.46398337  0.09123844  0.58611214  1
  O  O153  1  0.36210992  0.17959436  0.52113608  1
  H  H154  1  0.04831562  0.02869840  0.68425547  1
  H  H155  1  0.36652550  0.24487782  0.56068364  1
  C  C156  1  0.29130642  0.01316618  0.62142627  1
  C  C157  1  0.34677698  0.21561771  0.50895177  1
  C  C158  1  0.17551371  0.00125287  0.64136387  1
  C  C159  1  0.47366533  0.10723338  0.64785007  1
  H  H160  1  0.39416933  0.00408826  0.56983760  1
  C  C161  1  0.34763670  0.25407672  0.53173276  1
  C  C162  1  0.00384495  0.43930528  0.63021566  1
  C  C163  1  0.20153585  0.48639615  0.51062064  1
  O  O164  1  0.32931673  0.27613025  0.70729511  1
  H  H165  1  0.10028248  0.39665426  0.58991149  1
  H  H166  1  0.05397793  0.38916192  0.53361887  1
  H  H167  1  0.18296215  0.41484064  0.71161358  1
  H  H168  1  0.35286686  0.40329496  0.67261672  1
  H  H169  1  0.38111160  0.37762707  0.50322279  1
  C  C170  1  0.32722843  0.46585657  0.72304224  1
  C  C171  1  0.13508451  0.45412313  0.53122244  1
  C  C172  1  0.33402370  0.32287943  0.58663350  1
  C  C173  1  0.36459021  0.37384061  0.53292510  1
  H  H174  1  0.36316889  0.35112327  0.63876076  1
  H  H175  1  0.37219108  0.44061146  0.54514566  1
  C  C176  1  0.34766873  0.43417364  0.65949521  1
  C  C177  1  0.34215222  0.33062885  0.54778773  1
  H  H178  1  0.30536005  0.29126774  0.59597789  1
  H  H179  1  0.29090939  0.48115277  0.57687183  1
  C  C180  1  0.35398647  0.35752591  0.60930616  1
  C  C181  1  0.06015407  0.46124310  0.56671135  1
  C  C182  1  0.01217671  0.40729120  0.65987723  1
  H  H183  1  0.16979292  0.36826595  0.63375500  1
  C  C184  1  0.10847464  0.37191133  0.65782887  1
  H  H185  1  0.21971622  0.32288226  0.68770565  1
  C  C186  1  0.36123354  0.40024510  0.59584820  1
  C  C187  1  0.34498750  0.47120013  0.68178066  1
  C  C188  1  0.32364127  0.47869060  0.60390075  1
  C  C189  1  0.33517289  0.29572687  0.52157902  1
  C  C190  1  0.13710401  0.34764660  0.68802712  1
  C  C191  1  0.22885811  0.43467669  0.73229887  1
  C  C192  1  0.11882366  0.41279852  0.51867491  1
  C  C193  1  0.36610940  0.40827181  0.55685146  1
  C  C194  1  0.06068561  0.43012242  0.59552331  1
  C  C195  1  0.33918239  0.43805088  0.62022736  1
  C  C196  1  0.05506138  0.35358799  0.72041608  1
  H  H197  1  0.49042147  0.27157437  0.64393858  1
  H  H198  1  0.29321417  0.32880603  0.74816268  1
  C  C199  1  0.30984325  0.04275629  0.86786843  1
  C  C200  1  0.28632399  0.03606970  0.82947355  1
  C  C201  1  0.21098028  0.06697963  0.81043933  1
  C  C202  1  0.27247902  0.08243669  0.88529460  1
  C  C203  1  0.20000441  0.11197943  0.86614716  1
  C  C204  1  0.16621268  0.10535463  0.82857889  1
  H  H205  1  0.29946997  0.08472985  0.91470538  1
  H  H206  1  0.17450805  0.14259079  0.87699423  1
  H  H207  1  0.18963514  0.06116966  0.78087587  1
  C  C208  1  0.36793654  0.19296303  0.77477216  1
  C  C209  1  0.38114776  0.23121681  0.75762142  1
  C  C210  1  0.41727210  0.18223743  0.81015471  1
  C  C211  1  0.09190700  0.14031310  0.80928505  1
  H  H212  1  0.38093913  0.11651183  0.79288504  1
  H  H213  1  0.10560397  0.14684872  0.77978278  1
  H  H214  1  0.31094345  0.16694163  0.76054388  1
  H  H215  1  0.06674409  0.03473228  0.92181468  1
  H  H216  1  0.28656170  0.03119246  0.93422409  1
  C  C217  1  0.42412771  0.13599298  0.81471509  1
  O  O218  1  0.47262540  0.03795084  0.75735520  1
  C  C219  1  0.48249373  0.21012615  0.83764500  1
  H  H220  1  0.09286414  0.22214865  0.98972486  1
  H  H221  1  0.48760937  0.24342656  0.82741922  1
  H  H222  1  0.48339605  0.18668131  0.93859736  1
  C  C223  1  0.36250132  0.01093199  0.92510877  1
  C  C224  1  0.39598387  0.01121159  0.88849555  1
  H  H225  1  0.43688223  0.06701311  0.98342572  1
  H  H226  1  0.02102756  0.02988289  0.85186258  1
  H  H227  1  0.32686046  0.00815849  0.81478640  1
  C  C228  1  0.00282027  0.16092316  0.82919566  1
  C  C229  1  0.47983934  0.11758371  0.84549672  1
  H  H230  1  0.46093577  0.08382100  0.85110383  1
  H  H231  1  0.00490061  0.16839715  0.96328581  1
  H  H232  1  0.43555883  0.25556010  0.77416214  1
  H  H233  1  0.01614315  0.33256337  0.77611238  1
  C  C234  1  0.46589645  0.35812827  0.97471026  1
  C  C235  1  0.02239494  0.48524439  0.87678302  1
  C  C236  1  0.27836942  0.42705808  0.83183970  1
  H  H237  1  0.05003259  0.49680424  0.93572688  1
  H  H238  1  0.04853933  0.45598399  0.80533512  1
  C  C239  1  0.03290925  0.37106625  0.97475710  1
  C  C240  1  0.24317148  0.47557156  0.96829767  1
  H  H241  1  0.23099064  0.42138731  0.93406339  1
  C  C242  1  0.10229885  0.41199491  0.98235887  1
  H  H243  1  0.19443042  0.35354019  0.93944015  1
  H  H244  1  0.43476193  0.46444824  0.84543676  1
  C  C245  1  0.05928424  0.30157957  0.94211684  1
  H  H246  1  0.30844190  0.48955675  0.94686753  1
  O  O247  1  0.12745494  0.29690169  0.81922304  1
  C  C248  1  0.39058588  0.41388492  0.88921699  1
  O  O249  1  0.44810527  0.42676686  0.91534076  1
  Cu  Cu250  1  0.34702170  0.33607784  0.85412716  1
  O  O251  1  0.33919221  0.37368560  0.89111011  1
  H  H252  1  0.20296251  0.40090792  0.83823623  1
  C  C253  1  0.37225918  0.43794036  0.85414733  1
  H  H254  1  0.05375222  0.45071015  0.87731249  1
  C  C255  1  0.10191255  0.34441706  0.95299251  1
  O  O256  1  0.13311946  0.27950598  0.91822130  1
  C  C257  1  0.27612028  0.44792456  0.79669475  1
  C  C258  1  0.21013855  0.32422394  0.76554621  1
  C  C259  1  0.36207430  0.48324424  0.78613586  1
  O  O260  1  0.34123034  0.30141264  0.81500133  1
  C  C261  1  0.19679542  0.43508878  0.95966978  1
  C  C262  1  0.20149856  0.42475746  0.76919952  1
  Cu  Cu263  1  0.12677782  0.29170286  0.86929680  1
  H  H264  1  0.12383990  0.40153954  0.77704541  1
  H  H265  1  0.49130417  0.38203354  0.95371901  1
  C  C266  1  0.22764144  0.30649043  0.80057807  1
  C  C267  1  0.08922867  0.33280546  0.75413849  1
  C  C268  1  0.39781368  0.48871002  0.75047490  1
  C  C269  1  0.19645295  0.63407017  0.06645060  1
  C  C270  1  0.09929610  0.62081747  0.09197897  1
  C  C271  1  0.19621549  0.71121226  0.08968624  1
  C  C272  1  0.27103758  0.60474259  0.04259752  1
  C  C273  1  0.21067518  0.56364844  0.03791609  1
  C  C274  1  0.23634424  0.67912887  0.06621615  1
  H  H275  1  0.30424646  0.68602528  0.04384440  1
  C  C276  1  0.12717977  0.57213426  0.16104096  1
  C  C277  1  0.37845854  0.61827246  0.02198071  1
  H  H278  1  0.18079672  0.60023392  0.14982429  1
  H  H279  1  0.12099033  0.55303581  0.05061383  1
  H  H280  1  0.07025475  0.58756922  0.09591476  1
  H  H281  1  0.27036169  0.55379747  0.10121618  1
  C  C282  1  0.11252957  0.69433619  0.11785485  1
  C  C283  1  0.05568572  0.65074620  0.11742285  1
  C  C284  1  0.21134079  0.52695878  0.11053179  1
  C  C285  1  0.12154545  0.53051955  0.14101071  1
  C  C286  1  0.07600679  0.57226639  0.19524423  1
  O  O287  1  0.12821447  0.64726778  0.20685386  1
  H  H288  1  0.45196982  0.58476412  0.13434052  1
  C  C289  1  0.08197852  0.72818132  0.14252632  1
  H  H290  1  0.42407649  0.65017808  0.02452963  1
  C  C291  1  0.09182835  0.61309403  0.21581598  1
  H  H292  1  0.03006806  0.54482747  0.20720514  1
  C  C293  1  0.49932726  0.51219185  0.10055132  1
  H  H294  1  0.49112366  0.52352128  0.12861400  1
  C  C295  1  0.26176503  0.53568819  0.01048666  1
  H  H296  1  0.21981833  0.74467284  0.08444821  1
  H  H297  1  0.00581713  0.65199312  0.03091009  1
  C  C298  1  0.00390378  0.62976552  0.00671567  1
  C  C299  1  0.09661876  0.71998474  0.00113160  1
  H  H300  1  0.33380410  0.82343468  0.02012500  1
  C  C301  1  0.38008022  0.79404017  0.00855468  1
  C  C302  1  0.18011840  0.75348624  0.01083306  1
  H  H303  1  0.12279241  0.92083606  0.13680413  1
  O  O304  1  0.00030040  0.78947739  0.19503267  1
  C  C305  1  0.05614406  0.99721644  0.04966883  1
  H  H306  1  0.13270727  0.75956898  0.14148223  1
  H  H307  1  0.14364762  0.93942090  0.07388092  1
  O  O308  1  0.11147878  0.88368498  0.19203421  1
  Cu  Cu309  1  0.20791779  0.93186407  0.21474782  1
  O  O310  1  0.30929903  0.94665680  0.17514349  1
  H  H311  1  0.14226830  0.78282213  0.02421883  1
  C  C312  1  0.01987066  0.93089499  0.13532693  1
  H  H313  1  0.37041434  0.95413058  0.11310489  1
  C  C314  1  0.35980823  0.98465764  0.12450301  1
  C  C315  1  0.06667517  0.96476007  0.07649547  1
  C  C316  1  0.32420145  0.98471823  0.16197320  1
  H  H317  1  0.40327218  0.93773820  0.07073444  1
  H  H318  1  0.40713141  0.92763150  0.00359352  1
  C  C319  1  0.41610816  0.96136030  0.01528094  1
  O  O320  1  0.06369145  0.96767511  0.22129763  1
  C  C321  1  0.41464252  0.96750048  0.05253572  1
  O  O322  1  0.00184022  0.83285604  0.00738261  1
  O  O323  1  0.14628443  0.65354270  0.44253721  1
  C  C324  1  0.22952295  0.67215454  0.42134780  1
  O  O325  1  0.24320483  0.65722923  0.38887733  1
  O  O326  1  0.17789898  0.70651263  0.33412692  1
  C  C327  1  0.30273737  0.70746386  0.43489414  1
  Cu  Cu328  1  0.11779258  0.65781563  0.35174669  1
  H  H329  1  0.40152831  0.72298980  0.38925616  1
  H  H330  1  0.28027717  0.71421961  0.46425624  1
  C  C331  1  0.38081498  0.73419927  0.41669573  1
  H  H332  1  0.16578840  0.74750789  0.39255485  1
  O  O333  1  0.05274788  0.60924086  0.36738932  1
  C  C334  1  0.12213182  0.74045192  0.32223267  1
  O  O335  1  0.01096260  0.71152197  0.47702366  1
  O  O336  1  0.08413521  0.74087975  0.28870623  1
  H  H337  1  0.04237675  0.53336717  0.40203088  1
  H  H338  1  0.49804260  0.69893880  0.48037787  1
  H  H339  1  0.05461561  0.63624618  0.26235616  1
  O  O340  1  0.04542848  0.60732554  0.25554461  1
  H  H341  1  0.18315020  0.99458934  0.29040732  1
  C  C342  1  0.38883549  0.84242650  0.46476820  1
  H  H343  1  0.30772374  0.78244439  0.48108781  1
  H  H344  1  0.48845443  0.93219174  0.32619954  1
  H  H345  1  0.07512573  0.83730600  0.49332780  1
  O  O346  1  0.27561674  0.92527407  0.26197778  1
  C  C347  1  0.42853197  0.77466493  0.43122581  1
  C  C348  1  0.15799550  0.85871290  0.38717350  1
  C  C349  1  0.17565035  0.96624186  0.30959907  1
  C  C350  1  0.15494910  0.88523911  0.45112272  1
  O  O351  1  0.21395039  0.89073543  0.31042906  1
  C  C352  1  0.18038474  0.92102761  0.47782299  1
  H  H353  1  0.34530701  0.86344701  0.48639989  1
  C  C354  1  0.10873966  0.77936932  0.34250280  1
  C  C355  1  0.13781641  0.77793658  0.37803211  1
  C  C356  1  0.18076390  0.89088570  0.41374739  1
  H  H357  1  0.04502462  0.78298011  0.45060851  1
  C  C358  1  0.18331598  0.96277789  0.46121665  1
  H  H359  1  0.09979425  0.93927530  0.35717169  1
  C  C360  1  0.12115399  0.96814800  0.34155011  1
  C  C361  1  0.13036805  0.81707060  0.40176409  1
  H  H362  1  0.17754353  0.86316613  0.35803389  1
  C  C363  1  0.08593108  0.81250574  0.43979995  1
  H  H364  1  0.21623731  0.92306349  0.40639235  1
  H  H365  1  0.16019023  0.96760593  0.43264471  1
  C  C366  1  0.37098061  0.79861965  0.46121369  1
  H  H367  1  0.07018653  0.80744530  0.33024263  1
  C  C368  1  0.10292592  0.84375735  0.46579055  1
  C  C369  1  0.22436034  0.92499399  0.29497640  1
  C  C370  1  0.48160202  0.86387371  0.44203911  1
  H  H371  1  0.48797430  0.92868511  0.49668147  1
  C  C372  1  0.49999914  0.91276106  0.43945915  1
  C  C373  1  0.26256682  0.55454387  0.60954557  1
  C  C374  1  0.43187531  0.69673399  0.53849248  1
  C  C375  1  0.23646555  0.59495295  0.55177342  1
  C  C376  1  0.29643972  0.56329715  0.57203118  1
  H  H377  1  0.37322650  0.54278239  0.55936851  1
  H  H378  1  0.33254358  0.54310467  0.68184652  1
  H  H379  1  0.25447609  0.60046872  0.52188366  1
  H  H380  1  0.22791156  0.71452767  0.56309742  1
  H  H381  1  0.36901999  0.68741001  0.59643374  1
  C  C382  1  0.42065201  0.67426172  0.57269528  1
  C  C383  1  0.17581023  0.58138783  0.63004539  1
  C  C384  1  0.13641521  0.61845870  0.57214685  1
  C  C385  1  0.31368051  0.51502265  0.62762445  1
  H  H386  1  0.16091680  0.57720496  0.65953589  1
  H  H387  1  0.05071150  0.63496010  0.62742738  1
  C  C388  1  0.07103577  0.66638769  0.52432293  1
  H  H389  1  0.21184255  0.52044514  0.52003843  1
  C  C390  1  0.48341028  0.63436812  0.57288599  1
  H  H391  1  0.46635796  0.61513378  0.59709031  1
  C  C392  1  0.11843372  0.61478456  0.61164170  1
  H  H393  1  0.47187556  0.51208848  0.74329502  1
  C  C394  1  0.32561496  0.51340653  0.66634745  1
  H  H395  1  0.01862562  0.52820410  0.55195074  1
  C  C396  1  0.05368160  0.65185284  0.55861757  1
  H  H397  1  0.14500698  0.64931207  0.50809784  1
  C  C398  1  0.37575120  0.74179939  0.53661871  1
  C  C399  1  0.25940209  0.74439840  0.55031884  1
  C  C400  1  0.00524553  0.50286478  0.57294961  1
  C  C401  1  0.49060539  0.68077516  0.50614103  1
  O  O402  1  0.35795419  0.98182389  0.73530147  1
  C  C403  1  0.39140569  0.86997537  0.68520808  1
  C  C404  1  0.23017444  0.88546989  0.72990605  1
  H  H405  1  0.00550127  0.95209755  0.64757260  1
  C  C406  1  0.20361386  0.91733238  0.51578424  1
  C  C407  1  0.47423629  0.85227206  0.61321852  1
  C  C408  1  0.22895789  0.96076511  0.57568339  1
  H  H409  1  0.43029622  0.76682939  0.52257881  1
  C  C410  1  0.39396006  0.89023369  0.62050269  1
  O  O411  1  0.06433596  0.78251380  0.56396223  1
  H  H412  1  0.05971926  0.91955651  0.59281755  1
  C  C413  1  0.46606341  0.83229020  0.67617858  1
  C  C414  1  0.22977575  0.99854781  0.52012408  1
  H  H415  1  0.00020490  0.85566684  0.58023512  1
  C  C416  1  0.18477582  0.78647536  0.55014486  1
  C  C417  1  0.09532997  0.96406996  0.63223468  1
  H  H418  1  0.30969259  0.93076813  0.66081310  1
  H  H419  1  0.37457385  0.91174928  0.59816678  1
  H  H420  1  0.46993928  0.86740474  0.55390934  1
  C  C421  1  0.13165472  0.94333698  0.60023474  1
  C  C422  1  0.31612324  0.99315060  0.58799326  1
  O  O423  1  0.21909880  0.82002352  0.53643119  1
  C  C424  1  0.35608288  0.86967084  0.72530103  1
  C  C425  1  0.23057983  0.95683331  0.53419341  1
  H  H426  1  0.16914236  0.89390179  0.70812479  1
  H  H427  1  0.19875691  0.88534463  0.52967292  1
  C  C428  1  0.35751546  0.89929769  0.65548861  1
  C  C429  1  0.45779322  0.99534267  0.74943989  1
  H  H430  1  0.31830734  0.65807161  0.95354446  1
  H  H431  1  0.42299970  0.52796611  0.97032516  1
  C  C432  1  0.28591556  0.68722780  0.96851332  1
  C  C433  1  0.37292451  0.72086618  0.97725462  1
  C  C434  1  0.15027669  0.68589906  0.97987536  1
  H  H435  1  0.12117435  0.62297894  0.91954018  1
  C  C436  1  0.37011230  0.54809201  0.99057811  1
  C  C437  1  0.07039126  0.64484746  0.97546020  1
  C  C438  1  0.42871651  0.58885938  0.99588601  1
  C  C439  1  0.06637919  0.61649367  0.94399209  1
  H  H440  1  0.48721264  0.55831736  0.92936780  1
  H  H441  1  0.47869751  0.72163857  0.96980561  1
  H  H442  1  0.40623633  0.50611281  0.80513174  1
  C  C443  1  0.01539691  0.50890152  0.90840001  1
  O  O444  1  0.12623397  0.83233317  0.95796291  1
  H  H445  1  0.27955137  0.83499056  0.85378069  1
  C  C446  1  0.04542909  0.85280694  0.97847383  1
  O  O447  1  0.16902975  0.76984977  0.89424969  1
  C  C448  1  0.44789810  0.81107562  0.88076989  1
  C  C449  1  0.00541625  0.89416135  0.97058736  1
  C  C450  1  0.31391642  0.75603175  0.99744362  1
  C  C451  1  0.46016579  0.84021200  0.82077636  1
  H  H452  1  0.20303603  0.87217322  0.82275647  1
  H  H453  1  0.39022128  0.80357602  0.90621325  1
  O  O454  1  0.11270732  0.77343837  0.83469975  1
  C  C455  1  0.25295832  0.87489134  0.79629557  1
  C  C456  1  0.38277575  0.85828303  0.78948972  1
  C  C457  1  0.38568276  0.82868967  0.85141586  1
  H  H458  1  0.11767055  0.95678211  0.80799062  1
  C  C459  1  0.18497611  0.89139866  0.76668506  1
  C  C460  1  0.43244263  0.85410923  0.75467525  1
  C  C461  1  0.48869137  0.98347463  0.87380705  1
  C  C462  1  0.10868233  0.78708599  0.86766355  1
  Cu  Cu463  1  0.11150755  0.77681108  0.94122717  1
  C  C464  1  0.44775890  0.99057476  0.94982307  1
  C  C465  1  0.04170042  0.90906019  0.77082792  1
  H  H466  1  0.04174386  0.91102228  0.94532436  1
  C  C467  1  0.02846394  0.94590173  0.79415972  1
  C  C468  1  0.03406625  0.82397169  0.87487068  1
  H  H469  1  0.03080006  0.83479272  0.90408966  1
  C  C470  1  0.41847667  0.99635865  0.99048637  1
  H  H471  1  0.70013017  0.09937865  0.00713334  1
  C  C472  1  0.64306744  0.21381409  0.05378703  1
  C  C473  1  0.65756408  0.19292907  0.02028456  1
  H  H474  1  0.77568973  0.04473428  0.08085119  1
  H  H475  1  0.74784200  0.19627867  0.00419292  1
  C  C476  1  0.55080394  0.16719558  0.01041407  1
  C  C477  1  0.86069417  0.02462354  0.08136946  1
  H  H478  1  0.64142321  0.02806109  0.01616745  1
  C  C479  1  0.53083776  0.20879340  0.07620286  1
  H  H480  1  0.91148695  0.17341794  0.09093751  1
  H  H481  1  0.72356497  0.23493307  0.06231170  1
  C  C482  1  0.94344820  0.20088671  0.07329788  1
  C  C483  1  0.96417494  0.06864131  0.02901861  1
  C  C484  1  0.52528083  0.22665716  0.11178899  1
  C  C485  1  0.98127482  0.14872605  0.02079530  1
  C  C486  1  0.95901605  0.02935260  0.05500287  1
  C  C487  1  0.92779345  0.24400831  0.08342988  1
  C  C488  1  0.96865445  0.11131088  0.04314826  1
  Cu  Cu489  1  0.57858562  0.24528549  0.22016595  1
  H  H490  1  0.96516793  0.11521766  0.07196054  1
  C  C491  1  0.99344413  0.19319413  0.03704831  1
  H  H492  1  0.98810135  0.42809349  0.14179392  1
  H  H493  1  0.96769555  0.49804989  0.17246200  1
  H  H494  1  0.95343028  0.34876666  0.04681857  1
  O  O495  1  0.92326646  0.41391551  0.23812093  1
  H  H496  1  0.81682343  0.46668685  0.07771079  1
  C  C497  1  0.61972262  0.27732830  0.15303838  1
  C  C498  1  0.93446674  0.32321235  0.06637021  1
  H  H499  1  0.83534359  0.31163398  0.11612267  1
  O  O500  1  0.75832637  0.48019010  0.21326308  1
  C  C501  1  0.72125570  0.47362847  0.15116124  1
  H  H502  1  0.87373976  0.30669128  0.24083683  1
  C  C503  1  0.70992520  0.45728370  0.18615252  1
  H  H504  1  0.64546550  0.39656687  0.01185965  1
  C  C505  1  0.52013548  0.28511900  0.00430063  1
  H  H506  1  0.67630402  0.27044370  0.09570325  1
  Cu  Cu507  1  0.69856258  0.36644280  0.17244658  1
  H  H508  1  0.56633068  0.25426271  0.00463046  1
  H  H509  1  0.68549513  0.45301427  0.12771922  1
  H  H510  1  0.90302958  0.25317465  0.11225723  1
  O  O511  1  0.70722608  0.30547896  0.15822514  1
  C  C512  1  0.86652874  0.33507675  0.09510196  1
  C  C513  1  0.82273038  0.37885818  0.09892663  1
  C  C514  1  0.89762353  0.37548844  0.22662249  1
  C  C515  1  0.61343630  0.25901616  0.11823278  1
  O  O516  1  0.52941536  0.26559041  0.17643972  1
  O  O517  1  0.65194452  0.42148699  0.19084725  1
  C  C518  1  0.55052261  0.48174773  0.02955435  1
  H  H519  1  0.99152529  0.41548778  0.03626608  1
  O  O520  1  0.85069093  0.40465276  0.07464133  1
  O  O521  1  0.86684646  0.36984308  0.19375610  1
  O  O522  1  0.73689835  0.38884056  0.12434187  1
  C  C523  1  0.95947782  0.27841209  0.05811727  1
  C  C524  1  0.50888832  0.45190008  0.05578271  1
  C  C525  1  0.83809149  0.17544352  0.44556072  1
  C  C526  1  0.85571942  0.21145776  0.42318873  1
  H  H527  1  0.55349045  0.03529491  0.41928971  1
  C  C528  1  0.79002640  0.18562101  0.48393657  1
  C  C529  1  0.87360164  0.13370465  0.43444076  1
  C  C530  1  0.90636416  0.20389931  0.38773573  1
  C  C531  1  0.68766306  0.02046646  0.35508622  1
  C  C532  1  0.78338579  0.02067481  0.32733482  1
  H  H533  1  0.69169839  0.04418135  0.37765160  1
  H  H534  1  0.85967212  0.10629837  0.45324503  1
  H  H535  1  0.86212151  0.04559398  0.32693124  1
  H  H536  1  0.84246396  0.20153761  0.31575517  1
  C  C537  1  0.92927772  0.16117100  0.37464007  1
  C  C538  1  0.92433943  0.12684235  0.39848698  1
  H  H539  1  0.88690027  0.04095458  0.42736193  1
  H  H540  1  0.65000427  0.13256895  0.48361325  1
  C  C541  1  0.56999116  0.21989418  0.29258624  1
  C  C542  1  0.89057787  0.23231402  0.32388589  1
  C  C543  1  0.92369951  0.24003707  0.36128218  1
  C  C544  1  0.54121565  0.00070414  0.42567428  1
  C  C545  1  0.52881083  0.01861259  0.49277344  1
  H  H546  1  0.94168152  0.03815719  0.27797706  1
  C  C547  1  0.95553775  0.00506257  0.26714948  1
  C  C548  1  0.94749666  0.04427641  0.40210367  1
  C  C549  1  0.97105388  0.08448799  0.38344951  1
  C  C550  1  0.54528692  0.23025649  0.35924814  1
  H  H551  1  0.89313816  0.00329306  0.47705295  1
  H  H552  1  0.82356515  0.24468439  0.43205036  1
  H  H553  1  0.95518095  0.15621284  0.34594300  1
  O  O554  1  0.63519732  0.22540873  0.26206355  1
  H  H555  1  0.88583403  0.24922513  0.49498412  1
  C  C556  1  0.55356862  0.23718488  0.42684070  1
  C  C557  1  0.61159503  0.23710927  0.32676251  1
  H  H558  1  0.58571203  0.24157246  0.48561542  1
  C  C559  1  0.62846102  0.49889273  0.45226155  1
  H  H560  1  0.99366271  0.47330005  0.41480205  1
  H  H561  1  0.69226666  0.49508615  0.39953068  1
  C  C562  1  0.57465560  0.42754701  0.48069028  1
  C  C563  1  0.64704265  0.47515636  0.42051659  1
  C  C564  1  0.58509033  0.47336932  0.48256375  1
  H  H565  1  0.55803887  0.36944675  0.44737322  1
  C  C566  1  0.62114313  0.42986500  0.41687211  1
  C  C567  1  0.97298016  0.28129259  0.37297969  1
  O  O568  1  0.82091718  0.43767922  0.30477865  1
  C  C569  1  0.97481754  0.31440190  0.34710650  1
  C  C570  1  0.63327949  0.40365498  0.38334561  1
  C  C571  1  0.89389478  0.26539714  0.29890126  1
  H  H572  1  0.69655434  0.25991025  0.32619661  1
  H  H573  1  0.58081356  0.37245410  0.37882820  1
  C  C574  1  0.59616510  0.25193807  0.39154148  1
  O  O575  1  0.69490085  0.38093284  0.30665206  1
  Cu  Cu576  1  0.80212761  0.45419020  0.25693576  1
  H  H577  1  0.95679958  0.40516888  0.44458094  1
  H  H578  1  0.76231229  0.45232880  0.36650212  1
  H  H579  1  0.96588920  0.37779600  0.29610738  1
  C  C580  1  0.57888186  0.40413209  0.44827962  1
  C  C581  1  0.68632548  0.28854552  0.39006847  1
  C  C582  1  0.60502607  0.25519989  0.45876800  1
  H  H583  1  0.85362617  0.25903975  0.27088770  1
  C  C584  1  0.72183446  0.32381901  0.48485483  1
  H  H585  1  0.80067509  0.33562546  0.42145985  1
  C  C586  1  0.85987084  0.43339108  0.49325199  1
  C  C587  1  0.73292236  0.30760657  0.42146725  1
  C  C588  1  0.93697725  0.30857289  0.30908222  1
  C  C589  1  0.71444301  0.42152448  0.36000578  1
  C  C590  1  0.92843625  0.43584531  0.45901734  1
  C  C591  1  0.68788771  0.29249879  0.45575640  1
  C  C592  1  0.74354244  0.40973985  0.32291042  1
  H  H593  1  0.71666031  0.30454598  0.36453848  1
  C  C594  1  0.79276076  0.36113181  0.47702027  1
  H  H595  1  0.82029244  0.37124221  0.45025733  1
  C  C596  1  0.93703044  0.34578350  0.28484975  1
  C  C597  1  0.96374150  0.47433174  0.44306265  1
  C  C598  1  0.90007999  0.33941307  0.25092822  1
  C  C599  1  0.73125606  0.19803264  0.60215601  1
  C  C600  1  0.73240292  0.19037784  0.56126211  1
  C  C601  1  0.67581167  0.15725696  0.53919451  1
  C  C602  1  0.80978101  0.17120273  0.61835518  1
  C  C603  1  0.84367219  0.17151911  0.65759534  1
  O  O604  1  0.79570101  0.19679420  0.67730847  1
  H  H605  1  0.61195110  0.13322953  0.55420920  1
  H  H606  1  0.86397222  0.14591393  0.60205878  1
  Cu  Cu607  1  0.90022418  0.11858308  0.71408962  1
  C  C608  1  0.59202718  0.03394754  0.55542513  1
  H  H609  1  0.62494256  0.07089767  0.61890130  1
  C  C610  1  0.88794766  0.07714102  0.52545391  1
  C  C611  1  0.80022637  0.22487887  0.54328168  1
  O  O612  1  0.53586569  0.10543337  0.67894753  1
  H  H613  1  0.64030378  0.02734221  0.58077434  1
  C  C614  1  0.94689445  0.03983036  0.54259557  1
  O  O615  1  0.92284045  0.13890614  0.67068409  1
  C  C616  1  0.53175713  0.08885798  0.61740025  1
  H  H617  1  0.68989071  0.22522567  0.61741845  1
  C  C618  1  0.51380953  0.07248969  0.55325922  1
  H  H619  1  0.89760354  0.14783693  0.52221033  1
  C  C620  1  0.58334063  0.00424597  0.52635389  1
  C  C621  1  0.93470209  0.11735387  0.53446573  1
  O  O622  1  0.81757247  0.07568938  0.74273530  1
  Cu  Cu623  1  0.50189406  0.07589226  0.72110463  1
  O  O624  1  0.62650278  0.10831490  0.74937716  1
  H  H625  1  0.80875757  0.06888534  0.50756155  1
  C  C626  1  0.69401123  0.15853302  0.50141218  1
  C  C627  1  0.82561896  0.22184207  0.50517839  1
  C  C628  1  0.61257417  0.48362004  0.62076706  1
  H  H629  1  0.82706659  0.25268566  0.56120677  1
  H  H630  1  0.62330161  0.41309904  0.60696289  1
  H  H631  1  0.60219343  0.40968764  0.73706529  1
  C  C632  1  0.77603063  0.33120341  0.65149413  1
  C  C633  1  0.59200158  0.30002390  0.59864292  1
  H  H634  1  0.51673125  0.31070387  0.70958445  1
  C  C635  1  0.61469378  0.31580183  0.69933503  1
  H  H636  1  0.55380141  0.41077759  0.50658703  1
  H  H637  1  0.81118818  0.31721887  0.70925545  1
  C  C638  1  0.81227664  0.39098764  0.50608332  1
  H  H639  1  0.87855074  0.48446413  0.66018210  1
  C  C640  1  0.64963121  0.31544810  0.66081532  1
  H  H641  1  0.80306239  0.40503846  0.56395114  1
  C  C642  1  0.92587178  0.41150074  0.69064510  1
  C  C643  1  0.95210879  0.38567155  0.72158052  1
  C  C644  1  0.63903332  0.44228154  0.72863981  1
  C  C645  1  0.64035134  0.45869760  0.69134100  1
  H  H646  1  0.64042280  0.28346602  0.52752854  1
  C  C647  1  0.73263337  0.33973554  0.55063060  1
  C  C648  1  0.70534844  0.32461174  0.58870625  1
  C  C649  1  0.71390560  0.31863448  0.72074731  1
  H  H650  1  0.89848372  0.38993670  0.74695303  1
  H  H651  1  0.53572906  0.28408030  0.57773588  1
  C  C652  1  0.59869307  0.47393245  0.55222101  1
  C  C653  1  0.56180334  0.29491724  0.63518023  1
  H  H654  1  0.85350667  0.43663331  0.69489651  1
  H  H655  1  0.78939649  0.47133084  0.53964781  1
  H  H656  1  0.61105487  0.43881197  0.55499981  1
  C  C657  1  0.84257163  0.47247959  0.51347485  1
  C  C658  1  0.63823875  0.42706551  0.66284744  1
  H  H659  1  0.89352183  0.34973396  0.60690382  1
  C  C660  1  0.93104036  0.47865981  0.63437948  1
  C  C661  1  0.61621569  0.43800086  0.62729426  1
  H  H662  1  0.64941708  0.39219377  0.67004338  1
  C  C663  1  0.78085456  0.38127659  0.54221527  1
  C  C664  1  0.80396212  0.33442856  0.61431490  1
  H  H665  1  0.84415832  0.34292491  0.67279671  1
  C  C666  1  0.68954235  0.31446630  0.52128850  1
  C  C667  1  0.57872892  0.49637577  0.51895484  1
  H  H668  1  0.68948004  0.11210718  0.82009566  1
  C  C669  1  0.87820782  0.08451669  0.85501749  1
  C  C670  1  0.85759202  0.07691378  0.81672543  1
  C  C671  1  0.75047260  0.09321332  0.80181353  1
  C  C672  1  0.81255460  0.11842448  0.87523864  1
  H  H673  1  0.74254467  0.14518551  0.86541998  1
  H  H674  1  0.81366206  0.14639987  0.92769934  1
  C  C675  1  0.84956089  0.11987937  0.91098445  1
  C  C676  1  0.65126660  0.07371686  0.95154581  1
  C  C677  1  0.72149016  0.03116071  0.95969912  1
  O  O678  1  0.84523179  0.21483749  0.83456461  1
  H  H679  1  0.92702969  0.05826160  0.80195257  1
  C  C680  1  0.73016008  0.09268728  0.76369975  1
  O  O681  1  0.93106879  0.20666023  0.78021285  1
  H  H682  1  0.80648110  0.02821855  0.90424071  1
  H  H683  1  0.61633895  0.06371888  0.89392398  1
  C  C684  1  0.60476022  0.08699911  0.91644426  1
  C  C685  1  0.92559984  0.19359992  0.81334618  1
  C  C686  1  0.93422590  0.09001401  0.92957654  1
  C  C687  1  0.57037913  0.14022590  0.97548145  1
  H  H688  1  0.68492650  0.01741072  0.77755346  1
  C  C689  1  0.55857152  0.12882444  0.91013488  1
  C  C690  1  0.64535922  0.10236121  0.98137495  1
  C  C691  1  0.97181020  0.05424721  0.86962619  1
  C  C692  1  0.96553960  0.06156681  0.99146842  1
  C  C693  1  0.99064439  0.14261393  0.98205979  1
  C  C694  1  0.96051181  0.09937251  0.96932093  1
  H  H695  1  0.95455462  0.03029309  0.97924809  1
  C  C696  1  0.70480114  0.01260702  0.99439270  1
  C  C697  1  0.53236403  0.15439582  0.94119588  1
  H  H698  1  0.58385059  0.21575977  0.88780198  1
  C  C699  1  0.53540925  0.19242801  0.86877849  1
  C  C700  1  0.53144019  0.14599142  0.87190690  1
  C  C701  1  0.80655633  0.01359773  0.93260601  1
  H  H702  1  0.98637786  0.15467509  0.85948336  1
  C  C703  1  0.99795312  0.05783094  0.90763090  1
  C  C704  1  0.98958749  0.48563628  0.80761115  1
  C  C705  1  0.85686378  0.38636019  0.89351298  1
  O  O706  1  0.58714900  0.30791976  0.85070478  1
  C  C707  1  0.66807085  0.49724657  0.97000418  1
  C  C708  1  0.54445996  0.31754931  0.97659638  1
  H  H709  1  0.96401582  0.48538156  0.75260158  1
  C  C710  1  0.66208761  0.42354560  0.99167348  1
  H  H711  1  0.94623223  0.35984617  0.98621956  1
  C  C712  1  0.61353150  0.29890787  0.94663712  1
  Cu  Cu713  1  0.88231942  0.27151367  0.85212401  1
  O  O714  1  0.55409328  0.40820654  0.79747796  1
  O  O715  1  0.72914241  0.27021904  0.88311709  1
  O  O716  1  0.95236927  0.38465834  0.83513299  1
  C  C717  1  0.75951690  0.43921876  0.93254174  1
  C  C718  1  0.64330549  0.43936076  0.79480111  1
  Cu  Cu719  1  0.87290519  0.26401145  0.77796200  1
  O  O720  1  0.68360490  0.45245386  0.82312440  1
  H  H721  1  0.71383954  0.49408631  0.75900656  1
  C  C722  1  0.67037313  0.46165553  0.75935018  1
  H  H723  1  0.68783839  0.27382079  0.95228141  1
  H  H724  1  0.83828065  0.36150338  0.91419050  1
  C  C725  1  0.73885431  0.48338070  0.94019733  1
  C  C726  1  0.81407327  0.42689223  0.89822965  1
  C  C727  1  0.58498290  0.31451234  0.91375169  1
  C  C728  1  0.70110973  0.32022671  0.75976770  1
  O  O729  1  0.59446294  0.32104277  0.77774827  1
  O  O730  1  0.81131505  0.31927515  0.77588082  1
  H  H731  1  0.82937982  0.45092520  0.87751877  1
  H  H732  1  0.75749683  0.37597469  0.95857858  1
  O  O733  1  0.95549400  0.28508654  0.95092715  1
  C  C734  1  0.92691572  0.36869760  0.86321031  1
  C  C735  1  0.63318325  0.29675777  0.88054314  1
  Cu  Cu736  1  0.57339586  0.35678172  0.82222835  1
  O  O737  1  0.94878977  0.32200144  0.87003648  1
  C  C738  1  0.73215961  0.40941887  0.96186612  1
  H  H739  1  0.50662165  0.33704596  0.91055400  1
  C  C740  1  0.62255207  0.46748254  0.99614867  1
  C  C741  1  0.79664314  0.52946004  0.10778073  1
  H  H742  1  0.80194963  0.53170080  0.16794165  1
  C  C743  1  0.81651408  0.57554360  0.10405222  1
  H  H744  1  0.68357710  0.60212804  0.03835027  1
  C  C745  1  0.63787565  0.61653787  0.06353250  1
  C  C746  1  0.68028745  0.65816197  0.07182655  1
  O  O747  1  0.76256383  0.68277777  0.05511542  1
  C  C748  1  0.89093800  0.56654727  0.04170471  1
  H  H749  1  0.80456806  0.60020964  0.12648182  1
  C  C750  1  0.86615407  0.52137330  0.04387165  1
  C  C751  1  0.56322973  0.52594651  0.03900004  1
  H  H752  1  0.60322091  0.54710653  0.01997050  1
  C  C753  1  0.80316894  0.72659328  0.07136306  1
  C  C754  1  0.77528461  0.51187021  0.14389610  1
  C  C755  1  0.86910009  0.59197242  0.07273036  1
  C  C756  1  0.55626737  0.58953428  0.08276439  1
  C  C757  1  0.63287226  0.67200761  0.10821018  1
  C  C758  1  0.66499867  0.71355208  0.12042632  1
  O  O759  1  0.86989098  0.73947777  0.21917573  1
  C  C760  1  0.53040404  0.54138701  0.07322254  1
  C  C761  1  0.82445329  0.50176897  0.07606140  1
  H  H762  1  0.88697202  0.62739521  0.07179977  1
  H  H763  1  0.87902877  0.50124495  0.01839378  1
  H  H764  1  0.61607319  0.72501019  0.14589096  1
  C  C765  1  0.94497297  0.58798216  0.00830100  1
  H  H766  1  0.99525360  0.71930236  0.01043519  1
  C  C767  1  0.75170428  0.74096839  0.10360130  1
  C  C768  1  0.51960132  0.60465054  0.11697990  1
  C  C769  1  0.55251511  0.64567290  0.12932341  1
  H  H770  1  0.60342788  0.65858851  0.00710608  1
  O  O771  1  0.88296921  0.74795267  0.05593854  1
  H  H772  1  0.51836964  0.65662226  0.15657420  1
  H  H773  1  0.99986441  0.64247138  0.14037664  1
  H  H774  1  0.94076399  0.69028596  0.16836637  1
  C  C775  1  0.98933752  0.72129910  0.16809340  1
  Cu  Cu776  1  0.83382209  0.80254509  0.01135762  1
  C  C777  1  0.57553823  0.83787125  0.01592486  1
  C  C778  1  0.95174378  0.75169123  0.19412513  1
  H  H779  1  0.87888751  0.90029499  0.01468920  1
  C  C780  1  0.98855851  0.88828631  0.18726360  1
  O  O781  1  0.90978121  0.87178033  0.21052411  1
  O  O782  1  0.50423873  0.86554234  0.02878340  1
  C  C783  1  0.93638250  0.91695720  0.16135737  1
  C  C784  1  0.87522669  0.99394843  0.10785892  1
  H  H785  1  0.80608562  0.99500677  0.13006578  1
  H  H786  1  0.77038072  0.95926664  0.02867422  1
  Cu  Cu787  1  0.94478451  0.82107707  0.23660060  1
  H  H788  1  0.78820395  0.77156744  0.11652620  1
  H  H789  1  0.83236787  0.92585685  0.16182957  1
  C  C790  1  0.77104515  0.97457712  0.00232318  1
  C  C791  1  0.97966158  0.96217274  0.10662536  1
  O  O792  1  0.70339645  0.84318017  0.01581694  1
  C  C793  1  0.50951289  0.79845325  0.00400142  1
  C  C794  1  0.92820115  0.51417038  0.46230592  1
  H  H795  1  0.65849312  0.53360326  0.45441442  1
  H  H796  1  0.87149724  0.58423830  0.45528556  1
  C  C797  1  0.92018065  0.55587797  0.44411065  1
  O  O798  1  0.92166726  0.63575403  0.40685680  1
  Cu  Cu799  1  0.96637750  0.67253754  0.44350078  1
  C  C800  1  0.98092860  0.55991797  0.41197578  1
  H  H801  1  0.52286586  0.55202661  0.48867796  1
  C  C802  1  0.98258753  0.60298102  0.39457864  1
  Cu  Cu803  1  0.93109908  0.74085130  0.26562098  1
  H  H804  1  0.58528664  0.62604990  0.48359469  1
  C  C805  1  0.87309388  0.51276970  0.49861644  1
  H  H806  1  0.98052383  0.97646332  0.39899072  1
  H  H807  1  0.88458269  0.93999943  0.26553191  1
  C  C808  1  0.83390330  0.85713930  0.41533526  1
  C  C809  1  0.86302290  0.81967754  0.30183815  1
  C  C810  1  0.77594504  0.98387541  0.30368638  1
  H  H811  1  0.52589018  0.90362055  0.37996606  1
  H  H812  1  0.91544123  0.89943875  0.32940568  1
  C  C813  1  0.81712616  0.93287194  0.39190001  1
  C  C814  1  0.51893016  0.79661191  0.40771024  1
  H  H815  1  0.80093654  0.98246224  0.43361868  1
  H  H816  1  0.83561387  0.82213494  0.41010722  1
  C  C817  1  0.52906907  0.92654319  0.40352186  1
  C  C818  1  0.60335396  0.98394139  0.35908629  1
  C  C819  1  0.66762891  0.95479389  0.30299123  1
  C  C820  1  0.87674353  0.97296010  0.27702757  1
  C  C821  1  0.54972487  0.83941879  0.41482996  1
  C  C822  1  0.84395597  0.93770684  0.49600791  1
  C  C823  1  0.52768957  0.98681418  0.46242353  1
  C  C824  1  0.82587616  0.87277418  0.44959931  1
  C  C825  1  0.84413191  0.88802224  0.38531224  1
  C  C826  1  0.80624927  0.94713784  0.42832791  1
  H  H827  1  0.80417229  0.95656676  0.36904371  1
  O  O828  1  0.89768076  0.84789304  0.27885405  1
  H  H829  1  0.83485607  0.84977671  0.47325631  1
  C  C830  1  0.82262290  0.91828284  0.45723715  1
  H  H831  1  0.81661231  0.81229913  0.35811198  1
  H  H832  1  0.56739586  0.78277986  0.38218095  1
  C  C833  1  0.50220206  0.94175925  0.46943162  1
  C  C834  1  0.54883297  0.97131788  0.39598049  1
  C  C835  1  0.85141169  0.83430093  0.33799372  1
  H  H836  1  0.62284732  0.85699245  0.39935547  1
  C  C837  1  0.87138401  0.87574905  0.34797288  1
  O  O838  1  0.84345189  0.77913703  0.29464683  1
  H  H839  1  0.66103745  0.93325825  0.27931403  1
  C  C840  1  0.57442444  0.95473983  0.33010436  1
  C  C841  1  0.88487150  0.97970299  0.49976536  1
  C  C842  1  0.73833447  0.63193913  0.63665901  1
  C  C843  1  0.75917889  0.61948510  0.59911771  1
  C  C844  1  0.82597417  0.58285238  0.58944166  1
  C  C845  1  0.80293546  0.60794693  0.66486003  1
  H  H846  1  0.79217271  0.61500403  0.69285970  1
  H  H847  1  0.72818187  0.63799675  0.57573351  1
  C  C848  1  0.65915882  0.66943388  0.64598915  1
  C  C849  1  0.63724140  0.67578899  0.68238823  1
  H  H850  1  0.67083746  0.65145312  0.70469092  1
  C  C851  1  0.85848140  0.56815348  0.65376808  1
  C  C852  1  0.87751095  0.55460208  0.61757098  1
  H  H853  1  0.82423453  0.57667144  0.55997151  1
  H  H854  1  0.90373641  0.54744560  0.67309950  1
  H  H855  1  0.61579997  0.69000541  0.62409385  1
  H  H856  1  0.63677066  0.55131055  0.64360724  1
  C  C857  1  0.55633561  0.71156176  0.69735329  1
  O  O858  1  0.90804560  0.71679045  0.53079042  1
  H  H859  1  0.57605073  0.56609651  0.60435879  1
  C  C860  1  0.58011399  0.54627905  0.57898489  1
  H  H861  1  0.63907902  0.52499530  0.70782924  1
  C  C862  1  0.53770582  0.61448420  0.54101958  1
  C  C863  1  0.62181153  0.51659982  0.64912523  1
  C  C864  1  0.55835310  0.54042208  0.51415812  1
  C  C865  1  0.56327421  0.56631529  0.54546941  1
  C  C866  1  0.54401370  0.63882892  0.50839817  1
  C  C867  1  0.94580624  0.51184873  0.60761392  1
  C  C868  1  0.59424166  0.50062772  0.58416810  1
  C  C869  1  0.64273649  0.50387880  0.68471396  1
  O  O870  1  0.53333912  0.71260694  0.73560886  1
  O  O871  1  0.81518598  0.55916274  0.74802155  1
  H  H872  1  0.85066107  0.54286405  0.51335148  1
  C  C873  1  0.99254202  0.69941556  0.51020071  1
  H  H874  1  0.97438203  0.66451598  0.57598620  1
  O  O875  1  0.50341591  0.73988422  0.68008151  1
  H  H876  1  0.50780338  0.80876564  0.69607399  1
  C  C877  1  0.51831156  0.82320129  0.64180370  1
  H  H878  1  0.94648549  0.86144708  0.73432256  1
  H  H879  1  0.99868093  0.81120550  0.63641304  1
  H  H880  1  0.99276568  0.79487554  0.69500585  1
  H  H881  1  0.58186141  0.79528376  0.63682225  1
  H  H882  1  0.73248695  0.90322474  0.73925528  1
  O  O883  1  0.60274565  0.82846029  0.50563953  1
  C  C884  1  0.80170933  0.81992525  0.69105500  1
  C  C885  1  0.84686408  0.92371630  0.56224177  1
  H  H886  1  0.63673572  0.92117592  0.61460132  1
  C  C887  1  0.86918370  0.77904321  0.74201396  1
  H  H888  1  0.77433630  0.87615386  0.52142110  1
  C  C889  1  0.82139107  0.90853510  0.52588433  1
  C  C890  1  0.72146867  0.89808535  0.61901396  1
  O  O891  1  0.74630224  0.77996874  0.52698072  1
  H  H892  1  0.71386190  0.82153914  0.70546051  1
  H  H893  1  0.63903958  0.97463659  0.52849704  1
  H  H894  1  0.63322370  0.87674767  0.67111561  1
  C  C895  1  0.89415875  0.96634441  0.56667146  1
  C  C896  1  0.71220894  0.87504734  0.65083958  1
  Cu  Cu897  1  0.90164479  0.77651793  0.54484583  1
  C  C898  1  0.92843037  0.86144650  0.60131493  1
  C  C899  1  0.65483868  0.80938477  0.53119019  1
  H  H900  1  0.91474575  0.97672558  0.59441994  1
  C  C901  1  0.90718070  0.99353481  0.53628257  1
  H  H902  1  0.63328405  0.79738529  0.58937028  1
  C  C903  1  0.60052800  0.81717376  0.56677305  1
  C  C904  1  0.83101777  0.89356982  0.59453007  1
  C  C905  1  0.81951971  0.84461664  0.65794416  1
  C  C906  1  0.92479232  0.83613227  0.63187447  1
  C  C907  1  0.89284639  0.79549296  0.70629018  1
  C  C908  1  0.51154187  0.84679836  0.57566837  1
  H  H909  1  0.53350226  0.84357106  0.74751280  1
  H  H910  1  0.57083963  0.93205479  0.74698298  1
  H  H911  1  0.74127083  0.68945730  0.96391717  1
  H  H912  1  0.81193612  0.69676716  0.89508361  1
  C  C913  1  0.74286141  0.67087747  0.89028295  1
  C  C914  1  0.74822310  0.69630099  0.82872187  1
  C  C915  1  0.69846001  0.66811512  0.85635205  1
  C  C916  1  0.68743082  0.64367751  0.91882513  1
  C  C917  1  0.68237300  0.66006383  0.95578174  1
  O  O918  1  0.70721019  0.69253775  0.79690416  1
  H  H919  1  0.87811717  0.53335008  0.97478567  1
  H  H920  1  0.64410506  0.53098324  0.97117399  1
  C  C921  1  0.59882660  0.64245868  0.98050610  1
  H  H922  1  0.62523045  0.64295335  0.85002796  1
  H  H923  1  0.88811202  0.60183389  0.87453263  1
  O  O924  1  0.85176042  0.57067202  0.81191128  1
  C  C925  1  0.63068449  0.60144246  0.90978341  1
  H  H926  1  0.63853468  0.58651979  0.88271618  1
  C  C927  1  0.91233305  0.54468222  0.84432829  1
  C  C928  1  0.86776527  0.54441397  0.77378028  1
  H  H929  1  0.80501477  0.59385202  0.79871080  1
  C  C930  1  0.91666403  0.56718054  0.87595865  1
  O  O931  1  0.83959135  0.72498036  0.83441609  1
  Cu  Cu932  1  0.64449907  0.73911815  0.76832318  1
  H  H933  1  0.76819071  0.50662635  0.91930736  1
  O  O934  1  0.96459086  0.74690188  0.93250363  1
  C  C935  1  0.92735407  0.56419205  0.97565721  1
  C  C936  1  0.52267283  0.60571453  0.96996592  1
  C  C937  1  0.97151190  0.55157260  0.90877258  1
  C  C938  1  0.98774380  0.57995105  0.94355191  1
  C  C939  1  0.94264549  0.50475636  0.77712204  1
  C  C940  1  0.54513463  0.58505079  0.93493970  1
  C  C941  1  0.96809627  0.50344002  0.84343261  1
  Cu  Cu942  1  0.97190609  0.74811916  0.80723405  1
  H  H943  1  0.50432193  0.97967854  0.84504114  1
  C  C944  1  0.84862050  0.75903344  0.94243895  1
  O  O945  1  0.82861248  0.76115471  0.97676998  1
  H  H946  1  0.90852905  0.99999881  0.80890538  1
  O  O947  1  0.76138095  0.78374767  0.75826707  1
  C  C948  1  0.68018491  0.92920418  0.89038015  1
  H  H949  1  0.80874852  0.76655926  0.88818465  1
  C  C950  1  0.55539747  0.96646145  0.93743288  1
  C  C951  1  0.79771781  0.90182680  0.83877793  1
  H  H952  1  0.94452791  0.96154338  0.92203689  1
  C  C953  1  0.80470649  0.95515470  0.77154617  1
  H  H954  1  0.89345945  0.85414881  0.91990926  1
  H  H955  1  0.65823235  0.84171644  0.79508609  1
  C  C956  1  0.86063215  0.95686291  0.97653474  1
  H  H957  1  0.59255765  0.79160426  0.94091724  1
  C  C958  1  0.87967666  0.97689059  0.94054347  1
  H  H959  1  0.56754804  0.77190045  0.99369524  1
  C  C960  1  0.58350818  0.79937510  0.87940531  1
  C  C961  1  0.91348106  0.91681924  0.98994937  1
  C  C962  1  0.91372068  0.97085355  0.79319875  1
  C  C963  1  0.65396833  0.80715115  0.84611622  1
  H  H964  1  0.81342920  0.89947643  0.80952309  1
  C  C965  1  0.56998649  0.96032698  0.89941547  1
  H  H966  1  0.75694458  0.79959121  0.84510291  1
  H  H967  1  0.72098373  0.90071320  0.94297526  1
  H  H968  1  0.66161339  0.95229045  0.83254086  1
  C  C969  1  0.74219846  0.90098642  0.91429412  1
  C  C970  1  0.63701590  0.78640673  0.91426660  1
  C  C971  1  0.70840691  0.93101816  0.85128797  1
  C  C972  1  0.59824300  0.83081942  0.81851650  1
  C  C973  1  0.96970311  0.84604280  0.84897406  1
  C  C974  1  0.75984255  0.77116288  0.91404382  1
  H  H975  1  0.96964194  0.83966883  0.82003485  1
  C  C976  1  0.68580993  0.98301526  0.77187148  1
  C  C977  1  0.84131961  0.87378131  0.90102663  1
  C  C978  1  0.87424869  0.87645379  0.86379341  1
  H  H979  1  0.62011728  0.95096182  0.95795655  1
  O  O980  1  0.96008151  0.75610982  0.75696006  1
  C  C981  1  0.93552340  0.89348133  0.75134200  1
  C  C982  1  0.57525633  0.96672420  0.75603985  1
  C  C983  1  0.81685207  0.91616901  0.75206711  1
