# generated using pymatgen
data_Cu2H8C17O10
_symmetry_space_group_name_H-M   'P 1'
_cell_length_a   17.85907500
_cell_length_b   18.12964084
_cell_length_c   50.88258052
_cell_angle_alpha   90.00000000
_cell_angle_beta   90.00000000
_cell_angle_gamma   90.00000000
_symmetry_Int_Tables_number   1
_chemical_formula_structural   Cu2H8C17O10
_chemical_formula_sum   'Cu48 H192 C408 O240'
_cell_volume   16474.69146940
_cell_formula_units_Z   24
loop_
 _symmetry_equiv_pos_site_id
 _symmetry_equiv_pos_as_xyz
  1  'x, y, z'
loop_
 _atom_site_type_symbol
 _atom_site_label
 _atom_site_symmetry_multiplicity
 _atom_site_fract_x
 _atom_site_fract_y
 _atom_site_fract_z
 _atom_site_occupancy
  H  H0  1  0.22222775  0.31028146  0.20338628  1
  C  C1  1  0.27304680  0.01354845  0.06171191  1
  C  C2  1  0.22032241  0.31017059  0.13589298  1
  O  O3  1  0.41018822  0.34778955  0.23809452  1
  Cu  Cu4  1  0.41591280  0.39971388  0.20779044  1
  O  O5  1  0.35422570  0.13392171  0.07470735  1
  C  C6  1  0.11053778  0.26580683  0.10787358  1
  H  H7  1  0.04700483  0.23345761  0.15329995  1
  C  C8  1  0.24510213  0.32518389  0.16114639  1
  C  C9  1  0.14797633  0.27909607  0.13379965  1
  C  C10  1  0.31815132  0.35722337  0.16646679  1
  H  H11  1  0.13615754  0.44718970  0.15992962  1
  O  O12  1  0.10139378  0.24122776  0.22823869  1
  H  H13  1  0.25142840  0.32340743  0.11808012  1
  Cu  Cu14  1  0.44084215  0.32743815  0.13158740  1
  H  H15  1  0.24313120  0.05569899  0.07263737  1
  H  H16  1  0.06776033  0.33219454  0.21267546  1
  C  C17  1  0.38574022  0.08757907  0.06203444  1
  C  C18  1  0.12982934  0.27826468  0.17994681  1
  C  C19  1  0.10311596  0.25903875  0.15545377  1
  O  O20  1  0.36177456  0.37715117  0.14761083  1
  C  C21  1  0.07905401  0.27615127  0.20661338  1
  O  O22  1  0.45441473  0.09703032  0.05403421  1
  C  C23  1  0.20165403  0.30268959  0.18306630  1
  O  O24  1  0.33351737  0.37542715  0.18970263  1
  O  O25  1  0.14548264  0.28474867  0.08886029  1
  C  C26  1  0.02486890  0.47858162  0.19119978  1
  H  H27  1  0.02115388  0.25200969  0.20299016  1
  O  O28  1  0.04785207  0.22433733  0.10504179  1
  C  C29  1  0.34608821  0.01860266  0.05257144  1
  H  H30  1  0.04201440  0.40455378  0.15659605  1
  C  C31  1  0.00760709  0.41940802  0.17403383  1
  C  C32  1  0.26745974  0.33474303  0.32100314  1
  C  C33  1  0.38436484  0.39512504  0.30860632  1
  C  C34  1  0.06643806  0.34602263  0.36297781  1
  C  C35  1  0.33018810  0.41145565  0.35346475  1
  C  C36  1  0.33011824  0.37918576  0.32716160  1
  H  H37  1  0.43645605  0.42980468  0.31128024  1
  C  C38  1  0.37742904  0.36017656  0.28387618  1
  C  C39  1  0.25244464  0.31083564  0.29522644  1
  O  O40  1  0.38942288  0.44894757  0.35825046  1
  O  O41  1  0.28033718  0.39860913  0.37000943  1
  Cu  Cu42  1  0.14082800  0.26295363  0.25932749  1
  H  H43  1  0.12336537  0.34330125  0.31558059  1
  C  C44  1  0.31101869  0.32439198  0.27708653  1
  H  H45  1  0.30532851  0.30218794  0.25680822  1
  O  O46  1  0.06908648  0.34571294  0.26837201  1
  O  O47  1  0.18948254  0.27744910  0.29065755  1
  H  H48  1  0.22059979  0.32100238  0.33432471  1
  O  O49  1  0.13836308  0.35843569  0.35967723  1
  O  O50  1  0.03938376  0.33336974  0.38400868  1
  C  C51  1  0.43250252  0.36690493  0.26218258  1
  C  C52  1  0.02137008  0.34695230  0.33721743  1
  C  C53  1  0.06356444  0.34961022  0.31464114  1
  Cu  Cu54  1  0.18767429  0.45259991  0.36480530  1
  C  C55  1  0.02829251  0.34916771  0.28917671  1
  O  O56  1  0.48534499  0.47410999  0.43681162  1
  O  O57  1  0.49023928  0.39882188  0.26526291  1
  H  H58  1  0.00017193  0.49317788  0.38182009  1
  H  H59  1  0.05329422  0.28555599  0.60795255  1
  O  O60  1  0.07002496  0.07789738  0.59780544  1
  C  C61  1  0.07175752  0.14447920  0.60384179  1
  C  C62  1  0.01135612  0.26433855  0.59462581  1
  C  C63  1  0.46946196  0.17887149  0.69433730  1
  O  O64  1  0.19625570  0.15048853  0.53961806  1
  C  C65  1  0.20778900  0.46866766  0.68275304  1
  O  O66  1  0.34807029  0.04367707  0.62474851  1
  O  O67  1  0.11160964  0.17474665  0.62206794  1
  C  C68  1  0.20325414  0.48130747  0.73070236  1
  O  O69  1  0.47642937  0.23845754  0.70973144  1
  O  O70  1  0.34604127  0.03748490  0.72420539  1
  Cu  Cu71  1  0.21292928  0.16648100  0.62941966  1
  H  H72  1  0.30829740  0.34344324  0.64645700  1
  C  C73  1  0.35949853  0.09747507  0.63766222  1
  O  O74  1  0.32257541  0.15842668  0.63162157  1
  C  C75  1  0.10149186  0.19362352  0.72380868  1
  C  C76  1  0.17790487  0.18182243  0.68513141  1
  C  C77  1  0.13482611  0.13451521  0.53005002  1
  C  C78  1  0.40649470  0.49558742  0.62179949  1
  H  H79  1  0.36393346  0.27051086  0.72693631  1
  H  H80  1  0.36883248  0.20358849  0.67123535  1
  C  C81  1  0.41104369  0.29428018  0.71536506  1
  C  C82  1  0.04455829  0.34046158  0.70514102  1
  H  H83  1  0.12226153  0.31488122  0.67392445  1
  C  C84  1  0.41645161  0.42870413  0.60872490  1
  C  C85  1  0.01657939  0.42311252  0.66989976  1
  C  C86  1  0.46461055  0.03981314  0.66444877  1
  H  H87  1  0.07483150  0.43187702  0.66253769  1
  C  C88  1  0.29265119  0.37654370  0.66376985  1
  H  H89  1  0.30773321  0.37625216  0.72908526  1
  H  H90  1  0.20723612  0.01559058  0.74415569  1
  C  C91  1  0.41533027  0.16316125  0.67465565  1
  H  H92  1  0.11762444  0.13727419  0.72987456  1
  O  O93  1  0.38373995  0.31011859  0.69040632  1
  O  O94  1  0.19940648  0.20908498  0.66227325  1
  C  C95  1  0.10122217  0.29921612  0.69267142  1
  C  C96  1  0.20407491  0.44250818  0.63455454  1
  C  C97  1  0.49278761  0.45726273  0.65423351  1
  C  C98  1  0.32473519  0.35786399  0.68820341  1
  C  C99  1  0.23735146  0.44714400  0.70752722  1
  C  C100  1  0.41465216  0.09972273  0.65899663  1
  O  O101  1  0.20157057  0.12459717  0.69351670  1
  C  C102  1  0.12674654  0.23036797  0.70132340  1
  C  C103  1  0.29079271  0.39208134  0.70997398  1
  C  C104  1  0.05219086  0.23564083  0.73911156  1
  O  O105  1  0.21720914  0.40652567  0.61547046  1
  H  H106  1  0.38205843  0.41920543  0.59109186  1
  C  C107  1  0.23576303  0.42786799  0.66191230  1
  C  C108  1  0.46327636  0.37290781  0.61891844  1
  C  C109  1  0.02613964  0.30304518  0.72855527  1
  O  O110  1  0.47210949  0.30994682  0.60665021  1
  C  C111  1  0.01774614  0.18776186  0.58994676  1
  C  C112  1  0.12110028  0.05234314  0.52197881  1
  H  H113  1  0.43327682  0.34247011  0.72577415  1
  C  C114  1  0.31654375  0.00498833  0.70375230  1
  O  O115  1  0.01266060  0.40504683  0.69616446  1
  O  O116  1  0.08675148  0.18309925  0.52718669  1
  H  H117  1  0.33980806  0.01655065  0.68310877  1
  C  C118  1  0.05764175  0.03747543  0.50754529  1
  H  H119  1  0.25561885  0.01690781  0.70014438  1
  H  H120  1  0.21589696  0.01809494  0.54426635  1
  C  C121  1  0.17246715  0.00081662  0.53090258  1
  H  H122  1  0.02021134  0.07954061  0.50039143  1
  C  C123  1  0.27947975  0.24893295  0.76855791  1
  Cu  Cu124  1  0.17207364  0.36171841  0.76804149  1
  H  H125  1  0.08486872  0.44517055  0.85735797  1
  C  C126  1  0.40745168  0.29893404  0.77351614  1
  O  O127  1  0.26182830  0.31598075  0.76063869  1
  C  C128  1  0.39455115  0.16500025  0.77075888  1
  H  H129  1  0.38289988  0.35416602  0.77324880  1
  O  O130  1  0.05844474  0.34917136  0.81990794  1
  O  O131  1  0.07776102  0.39529428  0.78084571  1
  O  O132  1  0.04697337  0.14201194  0.77059171  1
  Cu  Cu133  1  0.03478598  0.06769706  0.79760579  1
  C  C134  1  0.47250454  0.15709737  0.77475821  1
  C  C135  1  0.07108217  0.40304052  0.80591625  1
  H  H136  1  0.05676568  0.19344194  0.94165495  1
  O  O137  1  0.21493940  0.45181341  0.75293043  1
  O  O138  1  0.23455344  0.20218425  0.77202472  1
  C  C139  1  0.02404222  0.20533766  0.76426659  1
  O  O140  1  0.09738826  0.00372045  0.77928482  1
  C  C141  1  0.08446933  0.47795752  0.81606213  1
  C  C142  1  0.36534497  0.23515540  0.77084001  1
  H  H143  1  0.35694405  0.11757604  0.76839118  1
  C  C144  1  0.48601221  0.29169196  0.77596138  1
  C  C145  1  0.25093196  0.00043349  0.75829924  1
  C  C146  1  0.32477036  0.00782807  0.75104436  1
  Cu  Cu147  1  0.00138896  0.27303385  0.81176458  1
  H  H148  1  0.00550615  0.09729028  0.96278633  1
  O  O149  1  0.09050769  0.00301557  0.89092238  1
  C  C150  1  0.09066273  0.48955460  0.84308387  1
  H  H151  1  0.00409221  0.27377997  0.92920126  1
  H  H152  1  0.00179908  0.21529048  0.88814746  1
  C  C153  1  0.00299590  0.22307432  0.94289052  1
  O  O154  1  0.01503974  0.20603373  0.83939970  1
  H  H155  1  0.24447133  0.84103095  0.03384801  1
  C  C156  1  0.27876332  0.89179253  0.03929745  1
  O  O157  1  0.13175256  0.86959631  0.04811883  1
  C  C158  1  0.28284530  0.62909777  0.23097417  1
  O  O159  1  0.12208806  0.97204920  0.07149800  1
  C  C160  1  0.24251945  0.94668512  0.05365259  1
  C  C161  1  0.35335567  0.89765755  0.02945423  1
  H  H162  1  0.12609634  0.66185436  0.19049761  1
  C  C163  1  0.11989826  0.50839986  0.15822348  1
  Cu  Cu164  1  0.06065736  0.86612986  0.02226517  1
  O  O165  1  0.38366641  0.84705452  0.01480822  1
  O  O166  1  0.44022784  0.58788524  0.12923930  1
  C  C167  1  0.21697731  0.65435692  0.22095749  1
  C  C168  1  0.21738568  0.58232681  0.18155690  1
  C  C169  1  0.18180414  0.63409252  0.19655454  1
  O  O170  1  0.18501523  0.55072865  0.15628342  1
  C  C171  1  0.32020627  0.57964008  0.21368633  1
  C  C172  1  0.16103198  0.93049509  0.05938458  1
  C  C173  1  0.39487242  0.55293250  0.21916946  1
  O  O174  1  0.42474411  0.57754854  0.23986859  1
  C  C175  1  0.16551107  0.70365632  0.23646694  1
  C  C176  1  0.28456236  0.55536196  0.19052012  1
  C  C177  1  0.41455099  0.53235599  0.13949177  1
  O  O178  1  0.10522498  0.71060483  0.22721562  1
  H  H179  1  0.07654815  0.51098163  0.14104391  1
  Cu  Cu180  1  0.48795588  0.66280207  0.24441954  1
  O  O181  1  0.07908737  0.52550346  0.18679955  1
  O  O182  1  0.42670108  0.50756762  0.20354448  1
  H  H183  1  0.31490930  0.51093804  0.18020494  1
  H  H184  1  0.44021549  0.51297411  0.15825123  1
  H  H185  1  0.36463021  0.50302421  0.13207854  1
  C  C186  1  0.38298213  0.96588113  0.03782411  1
  H  H187  1  0.44291166  0.98120687  0.03568468  1
  C  C188  1  0.46783492  0.86946902  0.00161001  1
  O  O189  1  0.10276777  0.50048085  0.36112437  1
  H  H190  1  0.46526554  0.74859628  0.48812541  1
  Cu  Cu191  1  0.12029289  0.75689550  0.28496666  1
  O  O192  1  0.19297587  0.75697877  0.31170378  1
  H  H193  1  0.21872361  0.66798775  0.34060343  1
  O  O194  1  0.31474576  0.76296938  0.44525767  1
  O  O195  1  0.18662254  0.72849559  0.25934645  1
  C  C196  1  0.38821407  0.65333709  0.44171287  1
  C  C197  1  0.43261009  0.78532646  0.30044008  1
  H  H198  1  0.27059528  0.84662140  0.46751424  1
  C  C199  1  0.42320467  0.72479240  0.31694464  1
  H  H200  1  0.40759602  0.67035964  0.30973637  1
  C  C201  1  0.20563232  0.80404343  0.33020265  1
  O  O202  1  0.41142797  0.61467214  0.35483296  1
  O  O203  1  0.12499998  0.73638077  0.48834433  1
  C  C204  1  0.43130643  0.74035899  0.34363824  1
  C  C205  1  0.41624426  0.68070169  0.36419035  1
  C  C206  1  0.46819792  0.86578734  0.33513684  1
  C  C207  1  0.45448706  0.80851407  0.35294688  1
  O  O208  1  0.04783539  0.78792772  0.30757037  1
  C  C209  1  0.34660800  0.69771110  0.45749222  1
  C  C210  1  0.22235886  0.69992834  0.35877268  1
  C  C211  1  0.21526646  0.79347297  0.40608345  1
  O  O212  1  0.41847765  0.70721658  0.26346360  1
  H  H213  1  0.39378452  0.67191663  0.42084004  1
  H  H214  1  0.23233086  0.68587511  0.42408547  1
  O  O215  1  0.21259467  0.86846465  0.32609687  1
  C  C216  1  0.45711315  0.53589203  0.42959385  1
  O  O217  1  0.21556167  0.83386165  0.42717333  1
  O  O218  1  0.26875208  0.57406140  0.41094014  1
  C  C219  1  0.22990364  0.67040115  0.38383737  1
  O  O220  1  0.46171043  0.55806724  0.40630423  1
  C  C221  1  0.41423990  0.56204664  0.47515839  1
  C  C222  1  0.22534445  0.71602534  0.40571551  1
  C  C223  1  0.21120906  0.82205481  0.37997939  1
  C  C224  1  0.41923007  0.77436524  0.27104494  1
  H  H225  1  0.20880572  0.88136337  0.37646892  1
  C  C226  1  0.20898756  0.77556033  0.35869226  1
  H  H227  1  0.30015492  0.70036574  0.49765156  1
  C  C228  1  0.25482093  0.79936979  0.45485487  1
  C  C229  1  0.33771952  0.67490837  0.48379006  1
  Cu  Cu230  1  0.39521520  0.53861006  0.37708899  1
  H  H231  1  0.20906598  0.76633018  0.46345427  1
  C  C232  1  0.07113924  0.53736839  0.34189953  1
  O  O233  1  0.10415978  0.55833713  0.32333087  1
  C  C234  1  0.37601963  0.61095630  0.49121085  1
  C  C235  1  0.41952804  0.58390618  0.44869945  1
  C  C236  1  0.01462938  0.85418718  0.30906355  1
  C  C237  1  0.24817251  0.58911772  0.38889585  1
  O  O238  1  0.41875096  0.69682165  0.38686697  1
  C  C239  1  0.06342011  0.73037987  0.49685320  1
  O  O240  1  0.24426767  0.54164732  0.37099356  1
  C  C241  1  0.45159907  0.85568424  0.30782018  1
  H  H242  1  0.46696072  0.82088100  0.37438405  1
  H  H243  1  0.45181148  0.90319079  0.29557903  1
  O  O244  1  0.41850678  0.82687901  0.25645096  1
  O  O245  1  0.00988996  0.88629635  0.28868451  1
  H  H246  1  0.43242197  0.50867454  0.48266364  1
  O  O247  1  0.49727650  0.92705643  0.34372077  1
  O  O248  1  0.00231360  0.75555465  0.48587460  1
  H  H249  1  0.48672914  0.66891785  0.46729100  1
  H  H250  1  0.03585621  0.78962651  0.35749347  1
  C  C251  1  0.49969945  0.72776170  0.47180439  1
  C  C252  1  0.00344355  0.84138613  0.35811293  1
  H  H253  1  0.30458293  0.64488071  0.25042852  1
  H  H254  1  0.01840710  0.61919776  0.59365323  1
  C  C255  1  0.11258438  0.69149562  0.54051743  1
  C  C256  1  0.10131192  0.66158413  0.56546162  1
  C  C257  1  0.16010232  0.65187913  0.58378332  1
  O  O258  1  0.16130664  0.53565955  0.72669397  1
  H  H259  1  0.17059051  0.70553456  0.53307499  1
  C  C260  1  0.39614432  0.83131136  0.58507592  1
  O  O261  1  0.15199929  0.86311998  0.60659742  1
  O  O262  1  0.22631172  0.67268156  0.57856722  1
  Cu  Cu263  1  0.31019851  0.62509132  0.56900411  1
  C  C264  1  0.39506474  0.82367384  0.55755470  1
  C  C265  1  0.09148081  0.90936682  0.51034698  1
  C  C266  1  0.46101400  0.81929336  0.59947785  1
  O  O267  1  0.14597055  0.62789459  0.60703024  1
  O  O268  1  0.31740342  0.59328513  0.62741892  1
  O  O269  1  0.20267179  0.87325920  0.53194915  1
  H  H270  1  0.34881670  0.84936925  0.59692645  1
  C  C271  1  0.35250587  0.55085919  0.61139086  1
  C  C272  1  0.46199625  0.80319097  0.54621581  1
  O  O273  1  0.49415113  0.85733435  0.71156187  1
  O  O274  1  0.29850244  0.91403860  0.70895284  1
  H  H275  1  0.16226547  0.50770588  0.67980315  1
  H  H276  1  0.26854000  0.76888701  0.71159992  1
  O  O277  1  0.33388687  0.63683478  0.53617457  1
  C  C278  1  0.21312466  0.75815260  0.67436597  1
  H  H279  1  0.46075969  0.79465652  0.52515230  1
  C  C280  1  0.05177042  0.69951255  0.52427648  1
  C  C281  1  0.45794443  0.82870400  0.62880516  1
  C  C282  1  0.19909289  0.67905829  0.67902801  1
  Cu  Cu283  1  0.21042302  0.59030854  0.63124159  1
  H  H284  1  0.30720364  0.94065407  0.54330762  1
  H  H285  1  0.35999440  0.84569503  0.73887624  1
  O  O286  1  0.32853456  0.54999111  0.58889506  1
  H  H287  1  0.42893517  0.56049586  0.65688147  1
  H  H288  1  0.25300653  0.90047021  0.56978206  1
  O  O289  1  0.40162670  0.84337408  0.64033310  1
  C  C290  1  0.36604609  0.59355680  0.52038436  1
  O  O291  1  0.32382053  0.83288259  0.54354171  1
  H  H292  1  0.24207927  0.96704576  0.66303347  1
  Cu  Cu293  1  0.17721901  0.63986981  0.73267775  1
  O  O294  1  0.16846652  0.64184428  0.66139238  1
  C  C295  1  0.20302454  0.86361377  0.64887657  1
  O  O296  1  0.16350519  0.50199465  0.63272847  1
  C  C297  1  0.24900205  0.79789787  0.69409430  1
  C  C298  1  0.18496101  0.79049284  0.65090136  1
  H  H299  1  0.15536125  0.76228203  0.63524565  1
  C  C300  1  0.04365385  0.81933170  0.73641381  1
  C  C301  1  0.39829377  0.79756632  0.73783318  1
  C  C302  1  0.23781019  0.90611991  0.66757411  1
  O  O303  1  0.22192441  0.64945921  0.70005234  1
  C  C304  1  0.15885829  0.92485516  0.52449902  1
  C  C305  1  0.17173285  0.90149648  0.62408434  1
  C  C306  1  0.27637491  0.88830580  0.55003166  1
  C  C307  1  0.26429453  0.87433951  0.69108747  1
  Cu  Cu308  1  0.05960146  0.99669916  0.62285158  1
  C  C309  1  0.46719126  0.80216099  0.72457581  1
  O  O310  1  0.05586550  0.87585130  0.72360659  1
  O  O311  1  0.15953368  0.97268438  0.62476906  1
  O  O312  1  0.40092743  0.53899776  0.52589699  1
  H  H313  1  0.46527794  0.99077406  0.65272395  1
  C  C314  1  0.02542067  0.64437639  0.57347903  1
  C  C315  1  0.43986483  0.51160285  0.64583483  1
  C  C316  1  0.48516664  0.67265515  0.73943557  1
  C  C317  1  0.36886418  0.73057550  0.74711749  1
  C  C318  1  0.40933222  0.66588802  0.74831273  1
  O  O319  1  0.09981156  0.78027798  0.74596837  1
  C  C320  1  0.04164569  0.96201672  0.50273136  1
  H  H321  1  0.07776547  0.85118499  0.50682922  1
  O  O322  1  0.25856956  0.66943111  0.75595732  1
  H  H323  1  0.12102118  0.67449687  0.84094481  1
  O  O324  1  0.12932329  0.72623095  0.79331817  1
  C  C325  1  0.12091929  0.65950926  0.78724049  1
  C  C326  1  0.11491404  0.61612317  0.83392203  1
  C  C327  1  0.10785321  0.60212362  0.80718364  1
  C  C328  1  0.28393535  0.95039301  0.80206888  1
  Cu  Cu329  1  0.44308755  0.87693816  0.86440852  1
  H  H330  1  0.43867829  0.98682371  0.76320642  1
  O  O331  1  0.10118277  0.82298279  0.99179711  1
  C  C332  1  0.10523523  0.56107245  0.85284356  1
  O  O333  1  0.15476789  0.92612558  0.97944457  1
  Cu  Cu334  1  0.09422513  0.96863242  0.95337001  1
  C  C335  1  0.37849822  0.98200003  0.76818173  1
  O  O336  1  0.45458693  0.65185441  0.92641663  1
  C  C337  1  0.28882171  0.73172592  0.75474526  1
  C  C338  1  0.41600051  0.93383423  0.81240477  1
  H  H339  1  0.26964023  0.92440576  0.82068105  1
  O  O340  1  0.39751765  0.89949807  0.83270158  1
  Cu  Cu341  1  0.15918417  0.81354393  0.77524363  1
  C  C342  1  0.32467359  0.87657366  0.90369235  1
  O  O343  1  0.13420147  0.92062241  0.80763619  1
  O  O344  1  0.15145810  0.65131127  0.91319138  1
  C  C345  1  0.23103997  0.97069037  0.78330009  1
  H  H346  1  0.11807778  0.68831370  0.87609034  1
  O  O347  1  0.25012688  0.78928208  0.75559740  1
  O  O348  1  0.33991760  0.93695344  0.91179179  1
  O  O349  1  0.48491413  0.94879712  0.80862430  1
  H  H350  1  0.45473597  0.92095949  0.99118123  1
  C  C351  1  0.09151179  0.53115230  0.79695034  1
  H  H352  1  0.42648870  0.56806986  0.88173387  1
  H  H353  1  0.12482762  0.71695393  0.96066515  1
  O  O354  1  0.07306559  0.92060440  0.92176799  1
  H  H355  1  0.25292331  0.74694088  0.88979618  1
  C  C356  1  0.23555563  0.76364157  0.90928617  1
  C  C357  1  0.24004529  0.86218253  0.94163630  1
  C  C358  1  0.15351394  0.64924295  0.88755654  1
  O  O359  1  0.11178633  0.57146611  0.87843157  1
  C  C360  1  0.18862398  0.82160704  0.95626210  1
  H  H361  1  0.25883676  0.91793554  0.94759743  1
  C  C362  1  0.46951126  0.69796296  0.94227177  1
  C  C363  1  0.26821182  0.82891483  0.91869151  1
  C  C364  1  0.16672905  0.74953364  0.94898151  1
  C  C365  1  0.15075903  0.85725459  0.97899366  1
  C  C366  1  0.18480721  0.72322188  0.92384399  1
  H  H367  1  0.08623636  0.52086653  0.77474728  1
  H  H368  1  0.20987354  0.64829928  0.87781027  1
  O  O369  1  0.35357246  0.85406020  0.88200236  1
  C  C370  1  0.06207494  0.94803829  0.89844034  1
  H  H371  1  0.00880437  0.71948607  0.77406465  1
  C  C372  1  0.35842132  0.95317532  0.79303908  1
  O  O373  1  0.48501715  0.80949727  0.98707285  1
  H  H374  1  0.38828206  0.61324361  0.75578224  1
  H  H375  1  0.48698314  0.86467000  0.93860149  1
  C  C376  1  0.14791087  0.96427529  0.79038497  1
  H  H377  1  0.42512554  0.72174003  0.95579560  1
  O  O378  1  0.11524088  0.63765249  0.76351221  1
  C  C379  1  0.01018939  0.90356601  0.88016451  1
  C  C380  1  0.48682278  0.58670485  0.88298032  1
  H  H381  1  0.03353076  0.98936244  0.85426054  1
  O  O382  1  0.43859712  0.52069537  0.83633342  1
  C  C383  1  0.81257025  0.32731650  0.05331538  1
  C  C384  1  0.74522231  0.22257235  0.03983854  1
  H  H385  1  0.79444187  0.22718561  0.07837760  1
  C  C386  1  0.78136016  0.25758771  0.06005166  1
  C  C387  1  0.71891771  0.14390200  0.04507880  1
  O  O388  1  0.75213424  0.10912195  0.06435847  1
  H  H389  1  0.63835033  0.09872774  0.10840073  1
  Cu  Cu390  1  0.95196566  0.27257204  0.10145217  1
  O  O391  1  0.90859222  0.25635461  0.16206351  1
  H  H392  1  0.82619495  0.41184293  0.02568722  1
  C  C393  1  0.85411914  0.36749552  0.07459050  1
  C  C394  1  0.93626960  0.15630005  0.06292876  1
  C  C395  1  0.65040430  0.14054330  0.12305522  1
  H  H396  1  0.97462654  0.25447962  0.02354441  1
  H  H397  1  0.75601163  0.41367295  0.18772489  1
  O  O398  1  0.72097328  0.00368723  0.12210615  1
  H  H399  1  0.59558271  0.42915201  0.21672496  1
  H  H400  1  0.63603571  0.35571472  0.07739052  1
  C  C401  1  0.60872765  0.39090512  0.03850863  1
  O  O402  1  0.51057995  0.39555473  0.14705976  1
  O  O403  1  0.96826360  0.32255152  0.13216385  1
  C  C404  1  0.61293821  0.20636097  0.12410189  1
  C  C405  1  0.63874199  0.40437645  0.06286617  1
  C  C406  1  0.57479714  0.31386550  0.03306846  1
  O  O407  1  0.87562558  0.42905702  0.07119769  1
  Cu  Cu408  1  0.51390663  0.18441367  0.05420112  1
  O  O409  1  0.56266584  0.26940601  0.05288277  1
  H  H410  1  0.61362886  0.31704479  0.14304466  1
  C  C411  1  0.64029386  0.26217490  0.14280319  1
  O  O412  1  0.73303503  0.30755292  0.17891650  1
  C  C413  1  0.97702321  0.48161720  0.21342164  1
  O  O414  1  0.67854461  0.11312892  0.03035583  1
  H  H415  1  0.77673817  0.16701566  0.17477929  1
  C  C416  1  0.97442603  0.19568262  0.01751472  1
  O  O417  1  0.52873030  0.17323383  0.09093855  1
  C  C418  1  0.69702207  0.24629980  0.15917951  1
  C  C419  1  0.54817612  0.21941915  0.10743939  1
  O  O420  1  0.55386515  0.29870901  0.01160090  1
  O  O421  1  0.51835178  0.28340231  0.11078340  1
  H  H422  1  0.61052475  0.46939910  0.13331382  1
  C  C423  1  0.73099560  0.17725484  0.16011687  1
  H  H424  1  0.74330207  0.39118917  0.15166659  1
  C  C425  1  0.95593995  0.36435308  0.17810800  1
  H  H426  1  0.85958385  0.33056392  0.20082603  1
  C  C427  1  0.95810406  0.14013479  0.03552650  1
  C  C428  1  0.66573384  0.47117528  0.07202960  1
  C  C429  1  0.74730520  0.36881804  0.17180683  1
  C  C430  1  0.70788231  0.12400415  0.14102929  1
  C  C431  1  0.94411231  0.30811969  0.15662369  1
  C  C432  1  0.80276936  0.35802787  0.02889530  1
  C  C433  1  0.92015225  0.42951973  0.21654213  1
  C  C434  1  0.59999439  0.45452753  0.17410195  1
  C  C435  1  0.62431570  0.45712549  0.20036957  1
  O  O436  1  0.86391352  0.32910978  0.09618920  1
  C  C437  1  0.53154179  0.40803261  0.17005767  1
  O  O438  1  0.93010010  0.22176450  0.06943320  1
  C  C439  1  0.96827811  0.06692506  0.02764602  1
  C  C440  1  0.90717601  0.37051053  0.19991202  1
  C  C441  1  0.63493609  0.48583998  0.15263318  1
  C  C442  1  0.73945199  0.04884672  0.14013929  1
  O  O443  1  0.78895948  0.03281070  0.15680581  1
  Cu  Cu444  1  0.82902823  0.03867097  0.06455572  1
  O  O445  1  0.91307550  0.10094114  0.07593803  1
  H  H446  1  0.96181677  0.02184853  0.04226625  1
  C  C447  1  0.73608133  0.25069287  0.01481441  1
  C  C448  1  0.62130792  0.44413760  0.01892729  1
  O  O449  1  0.50192359  0.37437383  0.18879673  1
  C  C450  1  0.87324118  0.43403304  0.24060770  1
  C  C451  1  0.76275973  0.32185572  0.00827901  1
  C  C452  1  0.98429544  0.05108940  0.00116941  1
  O  O453  1  0.73113559  0.04567849  0.21861735  1
  O  O454  1  0.81162417  0.39432042  0.24359515  1
  O  O455  1  0.68699231  0.48537602  0.09944435  1
  O  O456  1  0.68652136  0.48307964  0.24834353  1
  O  O457  1  0.88996178  0.48415694  0.25474041  1
  O  O458  1  0.66800198  0.03304111  0.40684564  1
  H  H459  1  0.91346238  0.35953304  0.35686005  1
  H  H460  1  0.91540772  0.35945640  0.27094900  1
  O  O461  1  0.72614416  0.05261876  0.31036567  1
  C  C462  1  0.94309938  0.35913018  0.33767388  1
  H  H463  1  0.81744170  0.08916762  0.43174205  1
  O  O464  1  0.79212890  0.38082986  0.33239544  1
  C  C465  1  0.69800587  0.35046014  0.42321930  1
  H  H466  1  0.62685407  0.13328636  0.40783322  1
  O  O467  1  0.66198988  0.38399441  0.44155585  1
  H  H468  1  0.84382644  0.03900251  0.39625753  1
  C  C469  1  0.87635598  0.08486410  0.38666070  1
  O  O470  1  0.70644619  0.14635868  0.49230344  1
  C  C471  1  0.91076339  0.36130188  0.31342042  1
  C  C472  1  0.74936241  0.12588589  0.47392541  1
  C  C473  1  0.79801678  0.14484031  0.42930364  1
  C  C474  1  0.80135888  0.17955572  0.40468865  1
  C  C475  1  0.72565707  0.24175242  0.45121948  1
  H  H476  1  0.92557995  0.09178443  0.40009637  1
  C  C477  1  0.94938656  0.35258344  0.29007448  1
  C  C478  1  0.76264840  0.24447521  0.40422169  1
  O  O479  1  0.83711588  0.14946316  0.38262093  1
  C  C480  1  0.72861972  0.27709004  0.42696119  1
  H  H481  1  0.69191108  0.26375546  0.46744630  1
  C  C482  1  0.82307656  0.36645625  0.31290730  1
  C  C483  1  0.75872014  0.17256054  0.45085399  1
  O  O484  1  0.79200576  0.36128284  0.28983494  1
  H  H485  1  0.75463352  0.27310482  0.38426418  1
  O  O486  1  0.70563734  0.37600104  0.40060828  1
  C  C487  1  0.64632517  0.08262255  0.41907012  1
  O  O488  1  0.78862579  0.06843853  0.47589847  1
  Cu  Cu489  1  0.77111360  0.45075777  0.39531462  1
  Cu  Cu490  1  0.74308786  0.42279393  0.26860126  1
  Cu  Cu491  1  0.58331413  0.44780058  0.43864613  1
  O  O492  1  0.92754550  0.00260973  0.48319037  1
  H  H493  1  0.64967984  0.08677847  0.44060552  1
  O  O494  1  0.89590340  0.05081927  0.35881747  1
  H  H495  1  0.71935948  0.03971036  0.26123386  1
  O  O496  1  0.86163552  0.49833878  0.39715078  1
  H  H497  1  0.97990780  0.49088805  0.49418818  1
  O  O498  1  0.67054006  0.37077356  0.53946934  1
  Cu  Cu499  1  0.72811944  0.21033717  0.52243301  1
  O  O500  1  0.68610913  0.14005428  0.54522696  1
  C  C501  1  0.77274192  0.35456255  0.59804245  1
  C  C502  1  0.76340156  0.09131909  0.57847890  1
  C  C503  1  0.76117613  0.15567452  0.59376014  1
  H  H504  1  0.71496607  0.19575697  0.59074971  1
  O  O505  1  0.74134065  0.27912076  0.55190898  1
  H  H506  1  0.79435439  0.30226198  0.59241172  1
  C  C507  1  0.72236494  0.38416804  0.58069110  1
  C  C508  1  0.71155044  0.34378496  0.55454944  1
  C  C509  1  0.67892582  0.44682503  0.58359442  1
  C  C510  1  0.76857567  0.38637898  0.71374243  1
  C  C511  1  0.71724191  0.08281771  0.55455360  1
  H  H512  1  0.91763796  0.26096245  0.64487602  1
  C  C513  1  0.97069142  0.15452468  0.57126277  1
  C  C514  1  0.67440787  0.08377875  0.65113472  1
  C  C515  1  0.88289725  0.17047317  0.53399750  1
  C  C516  1  0.92006770  0.27486684  0.56190397  1
  C  C517  1  0.60769732  0.06609242  0.60474355  1
  C  C518  1  0.81409371  0.03364054  0.58271804  1
  C  C519  1  0.80016314  0.45285125  0.70110483  1
  O  O520  1  0.53890308  0.19495795  0.60651638  1
  O  O521  1  0.77101910  0.21014152  0.73313961  1
  C  C522  1  0.86288139  0.05307268  0.60287942  1
  C  C523  1  0.80991436  0.16753529  0.61448964  1
  C  C524  1  0.92387247  0.20032809  0.55628347  1
  C  C525  1  0.74895832  0.45774350  0.62485099  1
  C  C526  1  0.69138924  0.01747996  0.63758114  1
  C  C527  1  0.78950905  0.38914702  0.62261095  1
  H  H528  1  0.56706798  0.12023371  0.71214542  1
  C  C529  1  0.86758610  0.11890127  0.61757724  1
  Cu  Cu530  1  0.74615160  0.24103332  0.69847902  1
  O  O531  1  0.72265782  0.02268428  0.54252793  1
  H  H532  1  0.98558996  0.33479130  0.74090102  1
  H  H533  1  0.54519200  0.34807656  0.64891053  1
  H  H534  1  0.58037135  0.05735366  0.58730463  1
  H  H535  1  0.58907636  0.29091541  0.62064851  1
  H  H536  1  0.98679924  0.38980183  0.65392105  1
  O  O537  1  0.79633756  0.32689137  0.70685204  1
  H  H538  1  0.88107790  0.31012544  0.54986839  1
  O  O539  1  0.93520833  0.43566886  0.54122761  1
  O  O540  1  0.70921931  0.38644266  0.72811292  1
  C  C541  1  0.59243543  0.13243165  0.61759163  1
  H  H542  1  0.91021685  0.48979113  0.57707199  1
  C  C543  1  0.69898771  0.48595004  0.60681711  1
  O  O544  1  0.76839241  0.06343983  0.68130567  1
  C  C545  1  0.65601999  0.00894987  0.61383771  1
  C  C546  1  0.62725219  0.13967975  0.64152491  1
  C  C547  1  0.86696621  0.28228027  0.63414237  1
  C  C548  1  0.71433792  0.09932654  0.67567565  1
  O  O549  1  0.59065383  0.43494721  0.68393678  1
  O  O550  1  0.80529100  0.24026899  0.63140810  1
  H  H551  1  0.63574932  0.46848516  0.56946283  1
  H  H552  1  0.62439183  0.19299653  0.65247071  1
  H  H553  1  0.89448189  0.39635530  0.68784755  1
  O  O554  1  0.69264816  0.15755146  0.68876695  1
  C  C555  1  0.53564337  0.25546993  0.62066982  1
  C  C556  1  0.86877202  0.45085466  0.68846810  1
  O  O557  1  0.83456034  0.36459626  0.64054037  1
  O  O558  1  0.96369924  0.38490775  0.58576144  1
  H  H559  1  0.85318807  0.40938500  0.56550770  1
  H  H560  1  0.89442635  0.30016472  0.61468531  1
  H  H561  1  0.85023193  0.10286490  0.74278670  1
  C  C562  1  0.91050825  0.43731655  0.56552810  1
  O  O563  1  0.83540678  0.20581493  0.52063312  1
  H  H564  1  0.90962341  0.13035201  0.63351808  1
  O  O565  1  0.89653093  0.10231181  0.52845936  1
  C  C566  1  0.96549173  0.31273574  0.58057653  1
  C  C567  1  0.54351209  0.47661398  0.67726247  1
  C  C568  1  0.51981021  0.11940963  0.69768788  1
  H  H569  1  0.51881425  0.24158744  0.64166502  1
  C  C570  1  0.89160641  0.48592422  0.52123194  1
  H  H571  1  0.75469983  0.49213801  0.64188882  1
  C  C572  1  0.51615750  0.05540621  0.68322338  1
  C  C573  1  0.50338263  0.39168402  0.64155884  1
  H  H574  1  0.98458188  0.09981458  0.56417390  1
  O  O575  1  0.96082392  0.01052424  0.62761455  1
  H  H576  1  0.79346192  0.48169587  0.54441674  1
  O  O577  1  0.97191509  0.49852345  0.66500160  1
  Cu  Cu578  1  0.84591936  0.04429699  0.50514246  1
  O  O579  1  0.60226457  0.00024167  0.71320026  1
  C  C580  1  0.75143023  0.12440810  0.76651322  1
  H  H581  1  0.57993031  0.21289744  0.77764272  1
  C  C582  1  0.70760841  0.11175859  0.78921709  1
  H  H583  1  0.65930513  0.14842396  0.79547711  1
  O  O584  1  0.60701797  0.34824706  0.78157357  1
  C  C585  1  0.72236833  0.04410312  0.80040710  1
  C  C586  1  0.53794175  0.35641657  0.77901600  1
  H  H587  1  0.87692755  0.04019000  0.84654911  1
  O  O588  1  0.94179944  0.17961629  0.93918056  1
  H  H589  1  0.65110818  0.30760119  0.96699575  1
  C  C590  1  0.89126244  0.47435892  0.87328095  1
  C  C591  1  0.83593193  0.02158490  0.77362387  1
  C  C592  1  0.81496275  0.08436147  0.75898325  1
  O  O593  1  0.61296122  0.05370413  0.82515829  1
  C  C594  1  0.97948883  0.14553600  0.84222819  1
  C  C595  1  0.80462911  0.46458927  0.94938867  1
  O  O596  1  0.87512500  0.42884739  0.85791643  1
  C  C597  1  0.92650454  0.14449346  0.91351352  1
  H  H598  1  0.78725322  0.45905031  0.96980875  1
  O  O599  1  0.96694531  0.10316497  0.82268389  1
  O  O600  1  0.75671094  0.35309502  0.98507589  1
  H  H601  1  0.78991770  0.37801079  0.88956769  1
  C  C602  1  0.85337020  0.47322042  0.89994616  1
  C  C603  1  0.94494127  0.12319180  0.86731458  1
  C  C604  1  0.73125508  0.19229439  0.75201498  1
  C  C605  1  0.85906773  0.05044215  0.88895640  1
  C  C606  1  0.87384328  0.08934381  0.91246240  1
  O  O607  1  0.71887835  0.35089816  0.93847338  1
  C  C608  1  0.51666987  0.22159275  0.77656395  1
  C  C609  1  0.89311411  0.06440541  0.86534140  1
  H  H610  1  0.84364616  0.07601390  0.93105094  1
  C  C611  1  0.80034737  0.41696371  0.90554563  1
  H  H612  1  0.73604209  0.25656930  0.95984169  1
  C  C613  1  0.77388841  0.41348411  0.93163274  1
  C  C614  1  0.71208779  0.31511030  0.96155518  1
  C  C615  1  0.78501214  0.00246635  0.79351052  1
  C  C616  1  0.96040658  0.16756015  0.89019770  1
  C  C617  1  0.99119272  0.18495410  0.99091837  1
  O  O618  1  0.50423061  0.41662834  0.77993762  1
  O  O619  1  0.99896849  0.24124947  0.97405269  1
  C  C620  1  0.99292840  0.10920190  0.98328534  1
  Cu  Cu621  1  0.52559390  0.03650322  0.80589237  1
  H  H622  1  0.70941713  0.21510292  0.99998562  1
  O  O623  1  0.97688462  0.24218087  0.77691452  1
  C  C624  1  0.67078631  0.01317848  0.81985520  1
  O  O625  1  0.67033381  0.22580297  0.75809172  1
  O  O626  1  0.50436461  0.09126528  0.77499706  1
  H  H627  1  0.60133333  0.43756640  0.99806200  1
  Cu  Cu628  1  0.67138278  0.32444558  0.75475762  1
  C  C629  1  0.85991603  0.75892882  0.07492903  1
  C  C630  1  0.87665248  0.82239731  0.11457695  1
  C  C631  1  0.86852362  0.75475831  0.10211393  1
  C  C632  1  0.86805855  0.82245639  0.06049368  1
  H  H633  1  0.76095997  0.58247984  0.09428404  1
  C  C634  1  0.84261659  0.69219376  0.05803214  1
  O  O635  1  0.85577496  0.69031829  0.03275712  1
  O  O636  1  0.81902346  0.64017597  0.06974008  1
  H  H637  1  0.87080486  0.82032375  0.03956068  1
  C  C638  1  0.88370344  0.88767617  0.10114653  1
  C  C639  1  0.88249559  0.89099556  0.07308787  1
  C  C640  1  0.87670781  0.83080686  0.14519254  1
  C  C641  1  0.67345323  0.52497311  0.05310544  1
  O  O642  1  0.70135277  0.62854779  0.01485628  1
  C  C643  1  0.66255127  0.57222522  0.00691313  1
  H  H644  1  0.68796455  0.72313385  0.17306958  1
  C  C645  1  0.72443364  0.98110664  0.21647279  1
  H  H646  1  0.69167611  0.57999848  0.06011880  1
  C  C647  1  0.59191957  0.65620994  0.17922679  1
  Cu  Cu648  1  0.72188523  0.90058894  0.12997088  1
  O  O649  1  0.56159336  0.62294043  0.22243741  1
  C  C650  1  0.65956901  0.76835304  0.12104077  1
  O  O651  1  0.71877594  0.94849665  0.19317749  1
  H  H652  1  0.89176139  0.93889038  0.11315979  1
  C  C653  1  0.71448608  0.54831948  0.18187366  1
  C  C654  1  0.71007317  0.93342579  0.24047318  1
  H  H655  1  0.85731386  0.70278221  0.11315982  1
  O  O656  1  0.65461691  0.69936348  0.21638920  1
  C  C657  1  0.64092597  0.69542192  0.16337302  1
  H  H658  1  0.75740893  0.59068484  0.18624394  1
  O  O659  1  0.71190679  0.80574682  0.13341234  1
  C  C660  1  0.60206309  0.65971115  0.20750614  1
  C  C661  1  0.61887560  0.70904742  0.13747047  1
  Cu  Cu662  1  0.79628260  0.93118573  0.17063602  1
  O  O663  1  0.64837690  0.77609870  0.09808085  1
  O  O664  1  0.87603246  0.89815097  0.15395344  1
  H  H665  1  0.66454755  0.59664138  0.10291440  1
  C  C666  1  0.51048628  0.62570066  0.14216369  1
  H  H667  1  0.70643645  0.82643049  0.22345421  1
  O  O668  1  0.73214281  0.56794285  0.13556860  1
  O  O669  1  0.88671317  0.95139761  0.05903240  1
  C  C670  1  0.70612147  0.52424523  0.22997291  1
  H  H671  1  0.53748967  0.69276426  0.10721351  1
  O  O672  1  0.74028949  0.58471131  0.23343929  1
  C  C673  1  0.55298059  0.67510947  0.12766883  1
  C  C674  1  0.70280148  0.85867408  0.24159302  1
  C  C675  1  0.70939406  0.55427143  0.10396274  1
  C  C676  1  0.69721772  0.53458259  0.15522262  1
  O  O677  1  0.87311564  0.78083779  0.15983912  1
  C  C678  1  0.53097929  0.61392735  0.16801401  1
  C  C679  1  0.65408377  0.50995658  0.02668091  1
  H  H680  1  0.98331838  0.52485471  0.22771878  1
  O  O681  1  0.98282002  0.92004985  0.00671209  1
  C  C682  1  0.68142561  0.50858898  0.20234600  1
  H  H683  1  0.50058100  0.87846834  0.01999568  1
  Cu  Cu684  1  0.79351806  0.65970631  0.00512070  1
  H  H685  1  0.50052595  0.57320266  0.18162446  1
  Cu  Cu686  1  0.70525961  0.67315545  0.24965506  1
  C  C687  1  0.93171671  0.98705882  0.35840726  1
  C  C688  1  0.86954074  0.59394320  0.33433511  1
  C  C689  1  0.82363643  0.64107932  0.31525883  1
  H  H690  1  0.56863199  0.61890047  0.44400632  1
  C  C691  1  0.70929040  0.94482952  0.28736662  1
  H  H692  1  0.69560461  0.84301177  0.30727587  1
  C  C693  1  0.94511623  0.58460774  0.32622695  1
  H  H694  1  0.66248865  0.98285836  0.46258327  1
  O  O695  1  0.84330105  0.65777903  0.29394560  1
  O  O696  1  0.53395643  0.76776214  0.45781000  1
  C  C697  1  0.81026685  0.57913719  0.48596314  1
  C  C698  1  0.83973839  0.56882997  0.35720592  1
  O  O699  1  0.69759134  0.95988641  0.33513386  1
  O  O700  1  0.76671394  0.67055127  0.32717772  1
  O  O701  1  0.99980833  0.77266960  0.40584066  1
  O  O702  1  0.67645728  0.78066762  0.34647359  1
  Cu  Cu703  1  0.77747784  0.74874061  0.35110616  1
  H  H704  1  0.78009768  0.58154953  0.36204452  1
  O  O705  1  0.99106646  0.56910392  0.45465494  1
  C  C706  1  0.98904794  0.84117623  0.40659478  1
  C  C707  1  0.59038634  0.66272136  0.43102011  1
  O  O708  1  0.68063824  0.75031273  0.26807652  1
  O  O709  1  0.61753110  0.86871257  0.36812909  1
  C  C710  1  0.92923972  0.58846827  0.45878901  1
  O  O711  1  0.65156350  0.52782321  0.43239675  1
  C  C712  1  0.63898317  0.80243468  0.36539333  1
  C  C713  1  0.69757102  0.86898777  0.28823102  1
  C  C714  1  0.80853041  0.79764487  0.39960070  1
  C  C715  1  0.77019125  0.84558887  0.41822231  1
  C  C716  1  0.57363089  0.73705974  0.43231804  1
  C  C717  1  0.69860030  0.96027412  0.42212061  1
  C  C718  1  0.97851039  0.87619506  0.38049123  1
  H  H719  1  0.58752644  0.83952223  0.41356807  1
  C  C720  1  0.88351524  0.52838747  0.37554659  1
  H  H721  1  0.78086442  0.61702940  0.47260509  1
  H  H722  1  0.68010722  0.65783881  0.37067077  1
  C  C723  1  0.73916323  0.91359537  0.40718726  1
  O  O724  1  0.89279192  0.64009255  0.44574975  1
  O  O725  1  0.84181512  0.74332590  0.40949939  1
  C  C726  1  0.62754749  0.75207915  0.38793192  1
  Cu  Cu727  1  0.59913132  0.93897961  0.34360749  1
  Cu  Cu728  1  0.94141835  0.70994436  0.42606806  1
  O  O729  1  0.80665198  0.81478215  0.37546603  1
  C  C730  1  0.69122454  0.94435169  0.44827173  1
  H  H731  1  0.78518305  0.77906863  0.45330184  1
  O  O732  1  0.94884091  0.88480712  0.48383802  1
  C  C733  1  0.72410347  0.88179110  0.46002148  1
  C  C734  1  0.64763380  0.67765846  0.38752909  1
  C  C735  1  0.59307102  0.77933793  0.41126813  1
  C  C736  1  0.75998972  0.82956659  0.44419512  1
  H  H737  1  0.74612491  0.92523322  0.38568944  1
  C  C738  1  0.63685720  0.63480110  0.41013961  1
  C  C739  1  0.67126106  0.56286215  0.41180090  1
  H  H740  1  0.93677196  0.97065766  0.31613749  1
  H  H741  1  0.96620212  0.60417149  0.30752745  1
  C  C742  1  0.69238731  0.82077353  0.26638863  1
  C  C743  1  0.71006629  0.97890731  0.26267110  1
  O  O744  1  0.98574031  0.87602311  0.42801610  1
  C  C745  1  0.88285940  0.55929113  0.48163371  1
  C  C746  1  0.71611563  0.87001076  0.48831274  1
  C  C747  1  0.95081458  0.94759846  0.38180036  1
  C  C748  1  0.95339669  0.94927381  0.33574722  1
  H  H749  1  0.93960009  0.97601264  0.40036487  1
  C  C750  1  0.98702459  0.55068069  0.34547828  1
  C  C751  1  0.96078834  0.52008558  0.36841023  1
  Cu  Cu752  1  0.99535059  0.81326122  0.45842931  1
  O  O753  1  0.71612500  0.53940343  0.39412170  1
  C  C754  1  0.98875362  0.88085808  0.33500776  1
  C  C755  1  0.96945059  0.94902691  0.48861985  1
  C  C756  1  0.71569440  0.98844810  0.31285729  1
  O  O757  1  0.74193438  0.80892265  0.49792815  1
  C  C758  1  0.92361228  0.51264257  0.49883937  1
  C  C759  1  0.70402991  0.57881806  0.51867441  1
  Cu  Cu760  1  0.64401932  0.63168867  0.56610024  1
  O  O761  1  0.68483388  0.56494216  0.54184535  1
  O  O762  1  0.64733770  0.72987612  0.56059809  1
  O  O763  1  0.61818465  0.58801768  0.59749967  1
  H  H764  1  0.56855146  0.73242963  0.72248843  1
  O  O765  1  0.57413186  0.93552476  0.67867737  1
  O  O766  1  0.60168299  0.76920979  0.52307435  1
  Cu  Cu767  1  0.52171452  0.84911958  0.67820832  1
  C  C768  1  0.76539355  0.51911463  0.70655706  1
  C  C769  1  0.76078090  0.90789552  0.72357052  1
  O  O770  1  0.72582856  0.90149367  0.60528627  1
  C  C771  1  0.86793774  0.63327231  0.58901527  1
  Cu  Cu772  1  0.67126764  0.92840024  0.54083051  1
  Cu  Cu773  1  0.68486699  0.72300697  0.50469892  1
  C  C774  1  0.66723657  0.56059129  0.61434876  1
  O  O775  1  0.59544048  0.61049378  0.73247327  1
  O  O776  1  0.66444356  0.61905910  0.50357055  1
  O  O777  1  0.68013698  0.59376427  0.63412277  1
  C  C778  1  0.59559584  0.76186559  0.54717336  1
  H  H779  1  0.92862072  0.69538012  0.51901247  1
  H  H780  1  0.81520244  0.93687784  0.72397956  1
  O  O781  1  0.63946686  0.93263104  0.57656455  1
  O  O782  1  0.92841575  0.93671803  0.59567037  1
  C  C783  1  0.53117525  0.60549061  0.74327435  1
  C  C784  1  0.57024241  0.99505864  0.69302444  1
  O  O785  1  0.52291799  0.82341859  0.64278968  1
  Cu  Cu786  1  0.61575630  0.60771371  0.69587900  1
  H  H787  1  0.57917685  0.78663706  0.60008540  1
  O  O788  1  0.70178001  0.65895023  0.70389530  1
  C  C789  1  0.76146859  0.65034499  0.69019532  1
  C  C790  1  0.52712039  0.78673527  0.56111550  1
  C  C791  1  0.86314779  0.57697326  0.67629390  1
  O  O792  1  0.87985335  0.64297959  0.56637824  1
  H  H793  1  0.90687696  0.86702542  0.71740560  1
  C  C794  1  0.67694808  0.93968885  0.59800220  1
  H  H795  1  0.71014533  0.93847961  0.71507519  1
  H  H796  1  0.87784727  0.62457101  0.66431704  1
  C  C797  1  0.79973434  0.57581874  0.69200061  1
  O  O798  1  0.78054274  0.69548900  0.67403772  1
  H  H799  1  0.72787868  0.97594325  0.64652164  1
  C  C800  1  0.77828257  0.55400255  0.50974773  1
  H  H801  1  0.91050896  0.63474984  0.60543889  1
  C  C802  1  0.51054485  0.73628739  0.72757367  1
  C  C803  1  0.96637736  0.65721245  0.55747405  1
  H  H804  1  0.80801772  0.63015646  0.59586984  1
  C  C805  1  0.90548621  0.51076010  0.67554702  1
  C  C806  1  0.97871681  0.68473452  0.53212388  1
  O  O807  1  0.68901542  0.91725286  0.50339485  1
  H  H808  1  0.81838902  0.97851602  0.57191012  1
  C  C809  1  0.91883432  0.99260191  0.60771431  1
  C  C810  1  0.52823604  0.79215710  0.58823860  1
  O  O811  1  0.53796372  0.54269900  0.68687157  1
  H  H812  1  0.71801369  0.51981231  0.71980484  1
  C  C813  1  0.81845896  0.50505096  0.52628541  1
  C  C814  1  0.83452574  0.81505663  0.74641394  1
  C  C815  1  0.96951958  0.79688423  0.74571541  1
  C  C816  1  0.90304424  0.83028023  0.73476609  1
  O  O817  1  0.75616999  0.84932618  0.73532451  1
  C  C818  1  0.91180954  0.91817767  0.78940106  1
  O  O819  1  0.83383360  0.72944547  0.85791820  1
  C  C820  1  0.82697386  0.76975494  0.76829036  1
  H  H821  1  0.87844739  0.82172398  0.82990564  1
  Cu  Cu822  1  0.79751866  0.64380624  0.84286101  1
  O  O823  1  0.89500010  0.98372575  0.76744843  1
  C  C824  1  0.92827677  0.81210771  0.86795244  1
  C  C825  1  0.97668078  0.83696801  0.88688453  1
  Cu  Cu826  1  0.93493793  0.59709318  0.84035827  1
  C  C827  1  0.53756401  0.56779855  0.86231983  1
  Cu  Cu828  1  0.52983104  0.52282084  0.78690817  1
  O  O829  1  0.89890125  0.71439021  0.89587911  1
  C  C830  1  0.71390344  0.62957189  0.88968806  1
  O  O831  1  0.93835319  0.95126052  0.81076193  1
  O  O832  1  0.82491247  0.58634106  0.98100577  1
  O  O833  1  0.67790574  0.95120058  0.82911675  1
  C  C834  1  0.88902023  0.74306631  0.87366766  1
  C  C835  1  0.54326725  0.84368580  0.94402658  1
  C  C836  1  0.85391236  0.52207354  0.94233886  1
  C  C837  1  0.99855687  0.93995022  0.85654066  1
  O  O838  1  0.77058613  0.98210056  0.91333227  1
  H  H839  1  0.86164352  0.88200278  0.79310452  1
  H  H840  1  0.65371356  0.55960449  0.84930054  1
  C  C841  1  0.89040185  0.73078563  0.77661944  1
  O  O842  1  0.81369272  0.76352268  0.95026243  1
  C  C843  1  0.60196518  0.83848981  0.92504281  1
  Cu  Cu844  1  0.67332017  0.92833339  0.86461706  1
  C  C845  1  0.88291135  0.68280879  0.80007282  1
  H  H846  1  0.79904633  0.95204854  0.80473555  1
  O  O847  1  0.81855372  0.67563949  0.81045769  1
  C  C848  1  0.62832976  0.79468352  0.97421674  1
  C  C849  1  0.86075425  0.58454078  0.95966761  1
  C  C850  1  0.57437063  0.85557594  0.89793095  1
  C  C851  1  0.67227758  0.81387725  0.93028067  1
  O  O852  1  0.88999337  0.64291777  0.95114696  1
  C  C853  1  0.68994225  0.79221958  0.95604530  1
  H  H854  1  0.72043081  0.81056902  0.91509465  1
  C  C855  1  0.95249042  0.91214601  0.83625566  1
  O  O856  1  0.62101260  0.85413781  0.87968150  1
  Cu  Cu857  1  0.83426844  0.69059791  0.92266545  1
  C  C858  1  0.76042628  0.76899470  0.96675532  1
  O  O859  1  0.50644580  0.54785588  0.75343974  1
  O  O860  1  0.76446217  0.96794430  0.87137035  1
  C  C861  1  0.88008791  0.52820179  0.91635804  1
  C  C862  1  0.96081978  0.74603354  0.76556052  1
  O  O863  1  0.76236123  0.60460623  0.87307520  1
  C  C864  1  0.51112467  0.62658865  0.90482259  1
  H  H865  1  0.77481198  0.75590014  0.77676836  1
  O  O866  1  0.99954984  0.96705514  0.96680225  1
  H  H867  1  0.60538775  0.67336146  0.92452758  1
  O  O868  1  0.73414782  0.65866100  0.91130396  1
  C  C869  1  0.63497311  0.61553199  0.88690478  1
  H  H870  1  0.92896041  0.56362717  0.91110831  1
  C  C871  1  0.61450714  0.57817757  0.86441032  1
  C  C872  1  0.91687736  0.84932462  0.84325819  1
  C  C873  1  0.58470152  0.63931035  0.90760627  1
  O  O874  1  0.93955127  0.66044269  0.81172431  1
  O  O875  1  0.63109219  0.56595144  0.98661483  1
  C  C876  1  0.55739662  0.81864921  0.96864652  1
  O  O877  1  0.76931753  0.75377746  0.99106970  1
  H  H878  1  0.64004591  0.77442304  0.99381029  1
  O  O879  1  0.93066540  0.53541193  0.86757974  1
  H  H880  1  0.95045844  0.89227799  0.77470350  1
  H  H881  1  0.52856890  0.71519288  0.94411774  1
  C  C882  1  0.98775381  0.97739448  0.99065065  1
  C  C883  1  0.79561753  0.99430883  0.89255685  1
  O  O884  1  0.55153712  0.50889092  0.82024323  1
  C  C885  1  0.50596314  0.53270723  0.83927845  1
  O  O886  1  0.50612751  0.85655206  0.89328574  1
  H  H887  1  0.98333047  0.81123462  0.90671656  1
