# generated using pymatgen
data_CuH9C17NO5
_symmetry_space_group_name_H-M   'P 1'
_cell_length_a   26.32692306
_cell_length_b   23.26307849
_cell_length_c   17.98562748
_cell_angle_alpha   90.00000000
_cell_angle_beta   90.00000000
_cell_angle_gamma   90.00000000
_symmetry_Int_Tables_number   1
_chemical_formula_structural   CuH9C17NO5
_chemical_formula_sum   'Cu24 H216 C408 N24 O120'
_cell_volume   11015.21261554
_cell_formula_units_Z   24
loop_
 _symmetry_equiv_pos_site_id
 _symmetry_equiv_pos_as_xyz
  1  'x, y, z'
loop_
 _atom_site_type_symbol
 _atom_site_label
 _atom_site_symmetry_multiplicity
 _atom_site_fract_x
 _atom_site_fract_y
 _atom_site_fract_z
 _atom_site_occupancy
  H  H0  1  0.20969652  0.11598655  0.40873608  1
  O  O1  1  0.20026599  0.19185335  0.42417237  1
  C  C2  1  0.10652221  0.12621424  0.35515591  1
  O  O3  1  0.09058469  0.35152210  0.23147058  1
  Cu  Cu4  1  0.22429337  0.26027921  0.37648315  1
  H  H5  1  0.04731558  0.41724706  0.34075416  1
  H  H6  1  0.00592377  0.27822480  0.24714860  1
  C  C7  1  0.16036836  0.28940623  0.49819450  1
  H  H8  1  0.07175105  0.19272667  0.42223850  1
  N  N9  1  0.20821978  0.06659671  0.24156673  1
  O  O10  1  0.21324208  0.01659839  0.06079064  1
  H  H11  1  0.16172597  0.14838934  0.18333549  1
  Cu  Cu12  1  0.12926964  0.42693591  0.10895723  1
  O  O13  1  0.24853684  0.32269853  0.32716116  1
  C  C14  1  0.03368686  0.48539694  0.23941288  1
  C  C15  1  0.13126670  0.11306727  0.28742504  1
  O  O16  1  0.19812132  0.45408379  0.11213006  1
  O  O17  1  0.14929519  0.36128919  0.06683968  1
  O  O18  1  0.18570517  0.30444149  0.43953941  1
  C  C19  1  0.11387651  0.21047223  0.24094943  1
  C  C20  1  0.13659002  0.15754134  0.23239945  1
  H  H21  1  0.11690289  0.24257061  0.19480050  1
  C  C22  1  0.08648281  0.22312698  0.30870234  1
  H  H23  1  0.01986540  0.08600728  0.06338913  1
  C  C24  1  0.03008553  0.37640009  0.32302916  1
  O  O25  1  0.09506998  0.48803902  0.14112167  1
  C  C26  1  0.08887034  0.18271478  0.36872352  1
  H  H27  1  0.10536055  0.09420891  0.39905453  1
  C  C28  1  0.06785095  0.33529689  0.28306305  1
  O  O29  1  0.01793558  0.45466854  0.11941478  1
  C  C30  1  0.03756569  0.29013364  0.39182548  1
  C  C31  1  0.17559029  0.18322766  0.48318488  1
  C  C32  1  0.16309119  0.05976990  0.26601267  1
  C  C33  1  0.04936783  0.47841830  0.16403271  1
  O  O34  1  0.21000603  0.07244064  0.41668902  1
  C  C35  1  0.06685753  0.28085024  0.32627879  1
  H  H36  1  0.21713764  0.10944184  0.24373015  1
  H  H37  1  0.22398065  0.39637651  0.23838483  1
  O  O38  1  0.24262528  0.15221884  0.14574590  1
  H  H39  1  0.03325533  0.25803719  0.43683043  1
  O  O40  1  0.21376679  0.45068364  0.48249397  1
  C  C41  1  0.18002500  0.07098641  0.47978014  1
  C  C42  1  0.24856416  0.48415494  0.21817336  1
  C  C43  1  0.21563021  0.49583696  0.15206787  1
  C  C44  1  0.01520219  0.34338511  0.39195417  1
  O  O45  1  0.09642791  0.30691718  0.00293012  1
  C  C46  1  0.13175272  0.34068362  0.00279356  1
  C  C47  1  0.15220046  0.36599996  0.93066704  1
  O  O48  1  0.24355237  0.18472069  0.90523337  1
  O  O49  1  0.18242224  0.37048170  0.67242322  1
  H  H50  1  0.09533075  0.18939814  0.78873343  1
  C  C51  1  0.03903528  0.49420924  0.87210762  1
  H  H52  1  0.18590301  0.43134593  0.99428493  1
  C  C53  1  0.01849008  0.12339568  0.77825174  1
  C  C54  1  0.12412447  0.22074262  0.58667014  1
  O  O55  1  0.13498969  0.32619103  0.53412749  1
  O  O56  1  0.17153473  0.02429256  0.50465571  1
  C  C57  1  0.16369563  0.12713112  0.51422202  1
  C  C58  1  0.17146744  0.37198291  0.80293745  1
  C  C59  1  0.14343437  0.02889868  0.81800696  1
  H  H60  1  0.16489635  0.10207166  0.74897921  1
  C  C61  1  0.11946242  0.16524585  0.61476175  1
  C  C62  1  0.09426999  0.15727846  0.69251636  1
  C  C63  1  0.13925020  0.11601516  0.58009186  1
  C  C64  1  0.17414922  0.02601515  0.94094985  1
  H  H65  1  0.10768473  0.25759530  0.61647833  1
  C  C66  1  0.19689396  0.07787302  0.93046518  1
  H  H67  1  0.00934547  0.45943631  0.66330403  1
  C  C68  1  0.20580048  0.41679650  0.80961722  1
  C  C69  1  0.15337203  0.23151364  0.52236894  1
  N  N70  1  0.11601720  0.18704733  0.74307689  1
  H  H71  1  0.22617995  0.43274021  0.75836569  1
  C  C72  1  0.16211461  0.34870842  0.72754307  1
  O  O73  1  0.09963158  0.43674612  0.62948935  1
  N  N74  1  0.08805875  0.02280128  0.71138814  1
  O  O75  1  0.13763013  0.30066739  0.71988861  1
  H  H76  1  0.09970680  0.06431333  0.70880445  1
  H  H77  1  0.03913455  0.12696104  0.83018793  1
  C  C78  1  0.10867396  0.46644735  0.68984071  1
  C  C79  1  0.06702736  0.47539535  0.74617994  1
  Cu  Cu80  1  0.14849560  0.39070600  0.58288548  1
  H  H81  1  0.12155541  0.30446991  0.85049758  1
  C  C82  1  0.16852409  0.08047214  0.80119301  1
  O  O83  1  0.21338143  0.18150132  0.78806456  1
  H  H84  1  0.13460477  0.06953985  0.59901370  1
  C  C85  1  0.19361217  0.10533494  0.86031222  1
  Cu  Cu86  1  0.17666179  0.24042082  0.74933460  1
  C  C87  1  0.14310428  0.34389651  0.85953151  1
  O  O88  1  0.14964010  0.48370073  0.70645717  1
  C  C89  1  0.22052007  0.15948688  0.85222538  1
  C  C90  1  0.04318903  0.13055326  0.70618353  1
  C  C91  1  0.01720249  0.46663654  0.72153471  1
  C  C92  1  0.18370235  0.41371082  0.93909926  1
  C  C93  1  0.21028788  0.44066346  0.88168577  1
  H  H94  1  0.04148489  0.11015805  0.58669097  1
  C  C95  1  0.01822112  0.11044010  0.64208993  1
  H  H96  1  0.03562011  0.34727884  0.53978400  1
  C  C97  1  0.23644995  0.49682796  0.90173951  1
  C  C98  1  0.07841302  0.48775411  0.82132561  1
  H  H99  1  0.11854263  0.48977531  0.83968206  1
  H  H100  1  0.21737525  0.09315035  0.98095106  1
  C  C101  1  0.24335701  0.46806829  0.52800583  1
  C  C102  1  0.09568804  0.97521991  0.27052610  1
  H  H103  1  0.01098564  0.78867543  0.04540015  1
  O  O104  1  0.06125108  0.99224698  0.09093427  1
  C  C105  1  0.08670749  0.91779713  0.29599351  1
  O  O106  1  0.17723493  0.92598208  0.16713980  1
  C  C107  1  0.02081372  0.96832960  0.07063898  1
  C  C108  1  0.18122642  0.99884821  0.01439228  1
  Cu  Cu109  1  0.11990154  0.95560774  0.12566536  1
  C  C110  1  0.18135599  0.97089438  0.32737069  1
  O  O111  1  0.00999351  0.91639965  0.08651254  1
  C  C112  1  0.03772057  0.88671860  0.27786704  1
  O  O113  1  0.20364167  0.83469223  0.40827862  1
  C  C114  1  0.17133416  0.91422104  0.34475616  1
  C  C115  1  0.07724589  0.54318829  0.42499059  1
  C  C116  1  0.12425575  0.88787592  0.33194370  1
  C  C117  1  0.21321855  0.88185894  0.38628227  1
  O  O118  1  0.03139053  0.83753977  0.29411883  1
  H  H119  1  0.12049667  0.84365337  0.34572764  1
  Cu  Cu120  1  0.23879624  0.90082157  0.21864041  1
  H  H121  1  0.20782548  0.55995880  0.02222995  1
  O  O122  1  0.12289913  0.54737756  0.41588809  1
  H  H123  1  0.06702064  0.99979276  0.24000602  1
  H  H124  1  0.10557429  0.94920736  0.46789242  1
  O  O125  1  0.15389139  0.95742628  0.03561340  1
  C  C126  1  0.04283727  0.51919776  0.36659586  1
  O  O127  1  0.21852685  0.54435081  0.13000846  1
  O  O128  1  0.05426900  0.55152281  0.48717940  1
  H  H129  1  0.14040246  0.63966438  0.01446594  1
  H  H130  1  0.10215156  0.52809765  0.28508419  1
  H  H131  1  0.21463809  0.99520647  0.34434921  1
  C  C132  1  0.14413001  0.99929818  0.28610610  1
  O  O133  1  0.00558344  0.91433229  0.23774451  1
  H  H134  1  0.16654882  0.54963961  0.49803695  1
  Cu  Cu135  1  0.20752910  0.99935833  0.15686846  1
  O  O136  1  0.03253391  0.74649549  0.48700740  1
  C  C137  1  0.06348706  0.51167394  0.29443192  1
  O  O138  1  0.02184657  0.97688228  0.47571274  1
  C  C139  1  0.03579242  0.86255887  0.79821444  1
  C  C140  1  0.07699368  0.83051953  0.82683591  1
  C  C141  1  0.06297334  0.91471886  0.55915081  1
  C  C142  1  0.13638361  0.63673243  0.89424263  1
  C  C143  1  0.12909238  0.84839109  0.83349943  1
  C  C144  1  0.21079039  0.80936391  0.69971186  1
  C  C145  1  0.00749621  0.71466276  0.94030846  1
  O  O146  1  0.01705852  0.53566788  0.99173241  1
  H  H147  1  0.01463936  0.94889010  0.74828904  1
  H  H148  1  0.09923416  0.56492473  0.67857445  1
  C  C149  1  0.15044712  0.61138455  0.82365950  1
  C  C150  1  0.04361790  0.66983475  0.93649123  1
  H  H151  1  0.13213762  0.72751526  0.81154819  1
  C  C152  1  0.00783654  0.66566493  0.70794769  1
  C  C153  1  0.18759810  0.60078030  0.59872103  1
  C  C154  1  0.14028210  0.90083077  0.80151465  1
  C  C155  1  0.24803125  0.76662402  0.71349284  1
  C  C156  1  0.15311880  0.89557460  0.54248693  1
  C  C157  1  0.09003119  0.67666159  0.89608472  1
  C  C158  1  0.06066257  0.87865051  0.62214371  1
  C  C159  1  0.22354123  0.78749543  0.57074919  1
  C  C160  1  0.06332422  0.76985133  0.85678616  1
  C  C161  1  0.09663213  0.93125660  0.77345891  1
  Cu  Cu162  1  0.01697568  0.61321416  0.51308757  1
  C  C163  1  0.09864065  0.65239187  0.63146328  1
  C  C164  1  0.15210290  0.85777286  0.60406178  1
  C  C165  1  0.19145393  0.57492088  0.96792756  1
  C  C166  1  0.07807378  0.60353899  0.67221169  1
  C  C167  1  0.07498049  0.70624189  0.63045313  1
  H  H168  1  0.09092488  0.74518014  0.59921937  1
  H  H169  1  0.03389446  0.63314974  0.97264101  1
  H  H170  1  0.02485173  0.87023792  0.65213614  1
  C  C171  1  0.18915689  0.56821553  0.82294450  1
  C  C172  1  0.20380936  0.55109330  0.89548611  1
  H  H173  1  0.10417639  0.82184743  0.68997463  1
  H  H174  1  0.17885171  0.91712127  0.80159029  1
  C  C175  1  0.03426426  0.61047925  0.71301158  1
  H  H176  1  0.20629020  0.54672937  0.77124212  1
  H  H177  1  0.12828990  0.62762360  0.77445674  1
  H  H178  1  0.01179600  0.75766951  0.66937112  1
  H  H179  1  0.15629301  0.82154791  0.86261383  1
  C  C180  1  0.04472613  0.91684256  0.76933766  1
  C  C181  1  0.19210802  0.55423463  0.55294415  1
  C  C182  1  0.10544717  0.85243167  0.64457598  1
  C  C183  1  0.14646874  0.64721348  0.58447422  1
  C  C184  1  0.21877925  0.61420989  0.65773475  1
  C  C185  1  0.15557292  0.61773211  0.96462578  1
  H  H186  1  0.19419115  0.83521503  0.74548608  1
  C  C187  1  0.19683909  0.81958336  0.62541632  1
  C  C188  1  0.10736698  0.92198486  0.52030573  1
  C  C189  1  0.09904632  0.72440431  0.84870975  1
  C  C190  1  0.03016052  0.71456159  0.67130063  1
  C  C191  1  0.01912590  0.76616754  0.90175636  1
  H  H192  1  0.01953239  0.57561337  0.74565796  1
  H  H193  1  0.21337514  0.65752728  0.68923082  1
  H  H194  1  0.12423483  0.96009183  0.89261975  1
  C  C195  1  0.01668847  0.94732057  0.52789952  1
  C  C196  1  0.05257775  0.51512254  0.94943470  1
  H  H197  1  0.01772250  0.84744923  0.52095747  1
  C  C198  1  0.23371364  0.52077858  0.57401848  1
  H  H199  1  0.24070770  0.64807166  0.92094757  1
  N  N200  1  0.15612922  0.68723643  0.53651377  1
  C  C201  1  0.11026632  0.99475487  0.76306558  1
  O  O202  1  0.09636292  0.51533355  0.96371924  1
  C  C203  1  0.14481958  0.99938653  0.88452416  1
  H  H204  1  0.19373697  0.68170223  0.51845101  1
  H  H205  1  0.18945485  0.90132374  0.50976170  1
  H  H206  1  0.22039682  0.79618609  0.51144027  1
  C  C207  1  0.32297255  0.19757088  0.14041233  1
  O  O208  1  0.31193561  0.35386284  0.39485381  1
  C  C209  1  0.39396734  0.27589216  0.08589227  1
  C  C210  1  0.34299628  0.27637829  0.05687299  1
  O  O211  1  0.30108754  0.11882337  0.22203729  1
  H  H212  1  0.27026423  0.23320807  0.05782625  1
  H  H213  1  0.47146333  0.18607587  0.14588531  1
  C  C214  1  0.44252373  0.45614360  0.41568943  1
  C  C215  1  0.31746647  0.46347978  0.33644114  1
  C  C216  1  0.45558482  0.46693374  0.34017232  1
  H  H217  1  0.38112750  0.15924539  0.20724310  1
  C  C218  1  0.28468398  0.15351181  0.17009589  1
  C  C219  1  0.42258470  0.36527860  0.29716460  1
  C  C220  1  0.43336546  0.31938364  0.24944901  1
  C  C221  1  0.37084005  0.19445934  0.17046282  1
  O  O222  1  0.35283489  0.47858526  0.02379130  1
  O  O223  1  0.41446198  0.07555337  0.22356887  1
  H  H224  1  0.46776843  0.00929192  0.48815907  1
  N  N225  1  0.46016177  0.22557577  0.16187682  1
  H  H226  1  0.42233807  0.30798348  0.07031508  1
  H  H227  1  0.40768600  0.28186059  0.24899359  1
  C  C228  1  0.32738068  0.31981521  0.00389976  1
  C  C229  1  0.30944191  0.23373427  0.08067266  1
  Cu  Cu230  1  0.28405312  0.04622778  0.21979974  1
  C  C231  1  0.40611784  0.23354591  0.13802295  1
  C  C232  1  0.45425547  0.41489776  0.28819020  1
  C  C233  1  0.41015679  0.02443902  0.22393417  1
  H  H234  1  0.39568618  0.36282034  0.34130787  1
  H  H235  1  0.34779162  0.45422103  0.37470268  1
  C  C236  1  0.28661263  0.41920845  0.30703000  1
  H  H237  1  0.49688415  0.06055511  0.25519884  1
  H  H238  1  0.43303694  0.41337605  0.43372273  1
  C  C239  1  0.25210400  0.42982926  0.25136620  1
  C  C240  1  0.28215511  0.36242321  0.34740678  1
  C  C241  1  0.47044262  0.32334071  0.19116473  1
  C  C242  1  0.49489088  0.01482952  0.26857086  1
  O  O243  1  0.36731971  0.00312239  0.19353588  1
  C  C244  1  0.49489290  0.41738128  0.23380957  1
  C  C245  1  0.48718795  0.27494445  0.14091142  1
  O  O246  1  0.29357160  0.30637141  0.82695564  1
  O  O247  1  0.28653321  0.43392010  0.54556183  1
  C  C248  1  0.41268699  0.38177650  0.80207393  1
  H  H249  1  0.48801911  0.41212292  0.53125365  1
  C  C250  1  0.46448725  0.48191574  0.70244678  1
  C  C251  1  0.37603788  0.33727703  0.79627777  1
  C  C252  1  0.47496600  0.31915182  0.74518888  1
  O  O253  1  0.49393737  0.21799202  0.66352584  1
  C  C254  1  0.43860114  0.00397844  0.53391831  1
  O  O255  1  0.31343065  0.39561733  0.85173994  1
  C  C256  1  0.43496955  0.28037953  0.73391774  1
  Cu  Cu257  1  0.33341021  0.43156199  0.94148476  1
  C  C258  1  0.46312099  0.37323263  0.77892350  1
  H  H259  1  0.35798905  0.25444673  0.74599310  1
  O  O260  1  0.41601310  0.18786564  0.67659171  1
  C  C261  1  0.38751074  0.28469751  0.75904526  1
  O  O262  1  0.28313103  0.31201085  0.97506243  1
  C  C263  1  0.44909530  0.22252711  0.68831751  1
  C  C264  1  0.44306057  0.03528275  0.60137671  1
  C  C265  1  0.32511170  0.34677760  0.82693597  1
  C  C266  1  0.47712785  0.47168919  0.78297199  1
  H  H267  1  0.40093018  0.42371159  0.82036822  1
  H  H268  1  0.41745250  0.05281317  0.71631761  1
  C  C269  1  0.41263272  0.03111979  0.66346884  1
  C  C270  1  0.48346162  0.44232146  0.65002389  1
  C  C271  1  0.47166049  0.44530712  0.57354363  1
  C  C272  1  0.44529488  0.49520676  0.54932549  1
  H  H273  1  0.29601721  0.49792491  0.64769749  1
  C  C274  1  0.48640345  0.07796561  0.59875406  1
  Cu  Cu275  1  0.26772704  0.26079259  0.90206159  1
  O  O276  1  0.35428194  0.36290242  0.98698018  1
  H  H277  1  0.28324074  0.40620381  0.50069348  1
  Cu  Cu278  1  0.32137639  0.89158460  0.35784074  1
  C  C279  1  0.32846475  0.59748787  0.04184874  1
  O  O280  1  0.25511332  0.90781242  0.40625094  1
  O  O281  1  0.29510529  0.87793025  0.26610692  1
  C  C282  1  0.44841030  0.92439876  0.25497727  1
  C  C283  1  0.46172981  0.52407390  0.31533997  1
  H  H284  1  0.41668112  0.90050219  0.23085457  1
  N  N285  1  0.34369702  0.56143489  0.33761573  1
  N  N286  1  0.48721605  0.83628139  0.29898280  1
  C  C287  1  0.31182532  0.71164842  0.38966179  1
  C  C288  1  0.46032831  0.56001821  0.44450435  1
  C  C289  1  0.27815267  0.52835388  0.24440601  1
  C  C290  1  0.29454484  0.74056747  0.45317529  1
  H  H291  1  0.43278885  0.67134098  0.42109676  1
  C  C292  1  0.33804920  0.62279274  0.31822423  1
  H  H293  1  0.28888527  0.78565768  0.45109848  1
  C  C294  1  0.46046474  0.67786456  0.37575418  1
  N  N295  1  0.26390390  0.67569537  0.04758777  1
  C  C296  1  0.38934503  0.51613349  0.02268396  1
  O  O297  1  0.34825121  0.64613071  0.26216529  1
  H  H298  1  0.38140780  0.55722745  0.32577565  1
  O  O299  1  0.35323171  0.90566419  0.43939484  1
  H  H300  1  0.29898847  0.56740884  0.05985029  1
  C  C301  1  0.44936790  0.98479121  0.25455101  1
  C  C302  1  0.31645986  0.65641404  0.03629232  1
  C  C303  1  0.31040128  0.51920740  0.30668804  1
  O  O304  1  0.26518439  0.97037748  0.20576767  1
  C  C305  1  0.30556851  0.61755322  0.45339682  1
  C  C306  1  0.46958659  0.56966051  0.36735282  1
  C  C307  1  0.31810071  0.65014391  0.39003612  1
  C  C308  1  0.49114385  0.89864239  0.28666741  1
  C  C309  1  0.39416253  0.93421764  0.45185475  1
  Cu  Cu310  1  0.33086568  0.93971522  0.23387379  1
  H  H311  1  0.46476762  0.53188246  0.25708888  1
  H  H312  1  0.25458352  0.66420285  0.10152941  1
  H  H313  1  0.47110552  0.59228763  0.48510441  1
  H  H314  1  0.32419722  0.73522357  0.33907955  1
  H  H315  1  0.45390143  0.81408280  0.29976547  1
  O  O316  1  0.25174147  0.77469344  0.07842020  1
  H  H317  1  0.27636221  0.57310856  0.21757465  1
  C  C318  1  0.25366816  0.73547239  0.03398660  1
  C  C319  1  0.47226576  0.73313649  0.35277530  1
  H  H320  1  0.45770389  0.77107138  0.38748533  1
  C  C321  1  0.48288423  0.63081468  0.33957814  1
  H  H322  1  0.31347662  0.56992216  0.45042939  1
  C  C323  1  0.37777326  0.58084796  0.02241470  1
  O  O324  1  0.42500345  0.94583105  0.40686525  1
  C  C325  1  0.44579486  0.50329471  0.46495268  1
  C  C326  1  0.41439604  0.62343354  0.00467144  1
  O  O327  1  0.43261694  0.50086715  0.02300418  1
  C  C328  1  0.35084633  0.70099418  0.01562443  1
  H  H329  1  0.34427166  0.74753843  0.01034852  1
  O  O330  1  0.44447460  0.77832453  0.00536359  1
  C  C331  1  0.40077362  0.68116848  0.00469957  1
  C  C332  1  0.34797821  0.82922728  0.63071141  1
  C  C333  1  0.26667290  0.52966548  0.63604635  1
  C  C334  1  0.26052829  0.57990481  0.67374715  1
  C  C335  1  0.43424299  0.52962931  0.67955309  1
  C  C336  1  0.30523981  0.58898703  0.73516404  1
  C  C337  1  0.38416857  0.79361819  0.59135078  1
  H  H338  1  0.30614813  0.81834184  0.63789905  1
  H  H339  1  0.29710830  0.53975095  0.92766200  1
  C  C340  1  0.36429705  0.87875148  0.66587370  1
  O  O341  1  0.28449415  0.90619344  0.72825877  1
  H  H342  1  0.42586203  0.93320294  0.69681381  1
  C  C343  1  0.41678792  0.89283886  0.66993965  1
  C  C344  1  0.27255414  0.73270344  0.66034743  1
  C  C345  1  0.42782406  0.53471926  0.60351896  1
  H  H346  1  0.27282719  0.61824729  0.56215721  1
  C  C347  1  0.25922810  0.79798388  0.92237775  1
  C  C348  1  0.45256111  0.86250658  0.62881950  1
  O  O349  1  0.32560922  0.63708098  0.73957311  1
  H  H350  1  0.26408971  0.85132471  0.82246808  1
  O  O351  1  0.46446283  0.50448109  0.82968419  1
  C  C352  1  0.32525320  0.91936655  0.70543441  1
  C  C353  1  0.28529322  0.64748158  0.51555973  1
  C  C354  1  0.48202526  0.78440488  0.55364807  1
  C  C355  1  0.43587153  0.81214061  0.58965281  1
  C  C356  1  0.36379593  0.96217081  0.58440792  1
  H  H357  1  0.29913166  0.69593965  0.67907170  1
  H  H358  1  0.40613758  0.57175342  0.58729090  1
  H  H359  1  0.42046188  0.55787667  0.72412721  1
  O  O360  1  0.32096504  0.54682664  0.77023508  1
  H  H361  1  0.37576814  0.75407085  0.56064266  1
  C  C362  1  0.39762349  0.96957664  0.52528246  1
  H  H363  1  0.46096174  0.69407299  0.58538596  1
  H  H364  1  0.33026873  0.93459983  0.57164279  1
  C  C365  1  0.28241435  0.70702004  0.51765613  1
  C  C366  1  0.25254715  0.74101730  0.95057077  1
  C  C367  1  0.25787209  0.74153605  0.58456233  1
  N  N368  1  0.34433022  0.97097119  0.70763225  1
  H  H369  1  0.25911180  0.83493747  0.96090614  1
  C  C370  1  0.44958050  0.72776199  0.98345651  1
  C  C371  1  0.37246560  0.99040679  0.65222235  1
  C  C372  1  0.26084224  0.80566701  0.84414928  1
  C  C373  1  0.25453773  0.75703827  0.79650615  1
  N  N374  1  0.28336794  0.50070936  0.92137564  1
  C  C375  1  0.25206526  0.69985064  0.82618851  1
  H  H376  1  0.25029367  0.66344848  0.78619004  1
  C  C377  1  0.25001087  0.69219662  0.90233618  1
  C  C378  1  0.48936814  0.72362781  0.55711466  1
  H  H379  1  0.49342640  0.87294264  0.63002063  1
  H  H380  1  0.45543629  0.61319222  0.99385320  1
  O  O381  1  0.48573155  0.70530537  0.95228310  1
  C  C382  1  0.74199328  0.06022708  0.23307702  1
  C  C383  1  0.58080087  0.33873984  0.46018225  1
  H  H384  1  0.62226592  0.45291254  0.40231149  1
  C  C385  1  0.68294793  0.37328372  0.28439616  1
  O  O386  1  0.65215174  0.11110098  0.40966257  1
  N  N387  1  0.69352889  0.42826640  0.17456555  1
  C  C388  1  0.58137506  0.23983067  0.41819808  1
  C  C389  1  0.69436536  0.13974734  0.40182897  1
  H  H390  1  0.67740443  0.05377078  0.30482415  1
  C  C391  1  0.71184035  0.08049012  0.29008177  1
  C  C392  1  0.72425805  0.00969548  0.19273274  1
  H  H393  1  0.53036177  0.37839852  0.13951773  1
  C  C394  1  0.72380071  0.39911235  0.40195401  1
  H  H395  1  0.57290862  0.35219555  0.40249849  1
  H  H396  1  0.64397362  0.28698519  0.28244417  1
  C  C397  1  0.58491805  0.01638586  0.31131227  1
  C  C398  1  0.72718671  0.12840346  0.33367497  1
  O  O399  1  0.63256124  0.35439170  0.17538324  1
  C  C400  1  0.66952210  0.31769182  0.31269269  1
  O  O401  1  0.70737111  0.17917031  0.43917302  1
  H  H402  1  0.65936189  0.26617181  0.41496709  1
  H  H403  1  0.67703920  0.44795743  0.12770572  1
  H  H404  1  0.71965456  0.32257504  0.13122171  1
  Cu  Cu405  1  0.58340392  0.12620525  0.37468101  1
  C  C406  1  0.66339579  0.38350617  0.20571247  1
  C  C407  1  0.70217927  0.34727600  0.43168372  1
  O  O408  1  0.58843211  0.07053594  0.30083482  1
  O  O409  1  0.57343214  0.18557318  0.43810565  1
  C  C410  1  0.67820514  0.30464602  0.38748990  1
  O  O411  1  0.57859314  0.25535094  0.35467116  1
  H  H412  1  0.72481762  0.45078148  0.30042933  1
  O  O413  1  0.51725094  0.27872845  0.09058897  1
  O  O414  1  0.62583296  0.47389039  0.35794283  1
  C  C415  1  0.50074238  0.37400699  0.18086251  1
  C  C416  1  0.71308637  0.41093059  0.32706759  1
  H  H417  1  0.51896309  0.45650444  0.23360265  1
  H  H418  1  0.62089732  0.44126276  0.32321381  1
  C  C419  1  0.60569080  0.47916015  0.00340414  1
  H  H420  1  0.56484701  0.48455053  0.01258160  1
  H  H421  1  0.74629728  0.42959952  0.43509946  1
  C  C422  1  0.74573712  0.41222965  0.15296793  1
  N  N423  1  0.57758207  0.43302082  0.49973528  1
  C  C424  1  0.58311252  0.28191859  0.48140832  1
  H  H425  1  0.52438280  0.40827655  0.83349187  1
  C  C426  1  0.58648311  0.26437193  0.55555808  1
  H  H427  1  0.69485534  0.22146069  0.75376374  1
  C  C428  1  0.71983803  0.01125263  0.77542153  1
  O  O429  1  0.59373352  0.22991264  0.71461020  1
  C  C430  1  0.67767344  0.42678577  0.94962921  1
  C  C431  1  0.71360223  0.28718585  0.54889046  1
  C  C432  1  0.71778134  0.28241007  0.62410289  1
  C  C433  1  0.59457869  0.30115541  0.61482289  1
  C  C434  1  0.58093909  0.46064090  0.56412154  1
  C  C435  1  0.71116794  0.33077468  0.67630737  1
  C  C436  1  0.73289277  0.22239261  0.64508181  1
  H  H437  1  0.69196962  0.38702608  0.91996560  1
  C  C438  1  0.71147034  0.46912737  0.97734754  1
  C  C439  1  0.58841335  0.38032252  0.51660499  1
  H  H440  1  0.72164936  0.11931103  0.77886314  1
  C  C441  1  0.72366556  0.43877823  0.67950497  1
  C  C442  1  0.59889973  0.28128388  0.68952636  1
  H  H443  1  0.73591872  0.43059512  0.80761259  1
  O  O444  1  0.60350240  0.32329074  0.73632400  1
  C  C445  1  0.58949358  0.38594685  0.94010207  1
  H  H446  1  0.58861508  0.21765220  0.56807002  1
  O  O447  1  0.55558979  0.07319431  0.81609766  1
  Cu  Cu448  1  0.65170893  0.33116909  0.81201712  1
  C  C449  1  0.71771290  0.19654596  0.71295734  1
  O  O450  1  0.59201173  0.43408275  0.62409488  1
  H  H451  1  0.64117152  0.36266759  0.61215373  1
  O  O452  1  0.59350582  0.10742182  0.71540223  1
  C  C453  1  0.63225437  0.00983730  0.86158915  1
  C  C454  1  0.71676524  0.38456290  0.63820069  1
  H  H455  1  0.59861776  0.00355044  0.89332722  1
  C  C456  1  0.59082700  0.07531580  0.77398260  1
  C  C457  1  0.62593316  0.43157373  0.96473505  1
  O  O458  1  0.54557600  0.38870871  0.95183768  1
  O  O459  1  0.70873799  0.32697450  0.74540077  1
  C  C460  1  0.67821194  0.04331044  0.74966389  1
  H  H461  1  0.57709865  0.31302755  0.89469041  1
  O  O462  1  0.60875191  0.33273873  0.89562633  1
  H  H463  1  0.67528616  0.06529371  0.69673269  1
  C  C464  1  0.63537161  0.03975128  0.79480625  1
  O  O465  1  0.50743326  0.08720904  0.53812628  1
  C  C466  1  0.60081144  0.36366443  0.59522095  1
  C  C467  1  0.73313057  0.45789795  0.75628205  1
  Cu  Cu468  1  0.54827041  0.16692890  0.68778320  1
  C  C469  1  0.72355635  0.47814364  0.61689817  1
  O  O470  1  0.71746253  0.44834333  0.54507828  1
  C  C471  1  0.71274382  0.39187926  0.55954038  1
  C  C472  1  0.73070596  0.13913484  0.72681897  1
  H  H473  1  0.51387344  0.31268573  0.71952578  1
  H  H474  1  0.71655384  0.24702697  0.51253716  1
  H  H475  1  0.51099310  0.40802718  0.66810884  1
  C  C476  1  0.70917552  0.34132295  0.51546825  1
  N  N477  1  0.50124175  0.41748808  0.79138102  1
  O  O478  1  0.50140381  0.10188761  0.65991305  1
  C  C479  1  0.71271534  0.81487783  0.11829867  1
  Cu  Cu480  1  0.59812475  0.77109592  0.17949444  1
  C  C481  1  0.60679055  0.82438010  0.44061715  1
  C  C482  1  0.67472986  0.84515134  0.16305669  1
  C  C483  1  0.53383042  0.92816488  0.31291436  1
  C  C484  1  0.53732854  0.98570194  0.29657366  1
  C  C485  1  0.56236179  0.79672413  0.48260129  1
  O  O486  1  0.56802253  0.80932348  0.25241592  1
  H  H487  1  0.56640987  0.90419609  0.33634911  1
  O  O488  1  0.57196515  0.70114105  0.21327243  1
  H  H489  1  0.68627394  0.94026509  0.43384476  1
  O  O490  1  0.62292312  0.98574330  0.32639194  1
  Cu  Cu491  1  0.65842753  0.93654733  0.26909406  1
  H  H492  1  0.62010993  0.74428699  0.38100339  1
  C  C493  1  0.70134970  0.85854693  0.38678024  1
  H  H494  1  0.70684770  0.77225235  0.32504419  1
  O  O495  1  0.62822241  0.83677781  0.14789699  1
  C  C496  1  0.63639967  0.78703951  0.39376122  1
  C  C497  1  0.52644548  0.79882833  0.28140147  1
  O  O498  1  0.68819830  0.87482432  0.21821622  1
  H  H499  1  0.54907125  0.62421778  0.41569736  1
  C  C500  1  0.56561733  0.54802321  0.48059569  1
  C  C501  1  0.53850972  0.69423516  0.26374447  1
  H  H502  1  0.57445571  0.52147131  0.42917180  1
  C  C503  1  0.55234795  0.60586900  0.47292803  1
  C  C504  1  0.68532357  0.80280848  0.36645953  1
  Cu  Cu505  1  0.73054158  0.94628895  0.07127652  1
  H  H506  1  0.65962938  0.80524084  0.02647304  1
  C  C507  1  0.56982157  0.73589069  0.48412109  1
  C  C508  1  0.69775191  0.79654049  0.04707706  1
  O  O509  1  0.68017346  0.99305021  0.19992900  1
  C  C510  1  0.61980396  0.56276159  0.08089920  1
  C  C511  1  0.66971514  0.89927187  0.42304885  1
  C  C512  1  0.62598828  0.88072945  0.45931400  1
  H  H513  1  0.54076738  0.60053754  0.26799344  1
  H  H514  1  0.60589570  0.71090045  0.46499091  1
  H  H515  1  0.55401140  0.58759227  0.09323707  1
  O  O516  1  0.56558589  0.54881084  0.09072479  1
  O  O517  1  0.63694544  0.60610235  0.10701780  1
  H  H518  1  0.72175488  0.54279658  0.05142373  1
  C  C519  1  0.50832723  0.74019818  0.29824787  1
  C  C520  1  0.52127779  0.63967837  0.28894601  1
  C  C521  1  0.69487479  0.51457114  0.02370559  1
  C  C522  1  0.64044536  0.51873679  0.02990363  1
  H  H523  1  0.60474658  0.90560225  0.49659196  1
  C  C524  1  0.73377094  0.76839988  0.00264009  1
  C  C525  1  0.67363441  0.97597021  0.88474418  1
  C  C526  1  0.54208583  0.63728112  0.53740302  1
  C  C527  1  0.73560371  0.55694054  0.70943063  1
  C  C528  1  0.66745254  0.93819244  0.95299947  1
  O  O529  1  0.68659093  0.75130832  0.89044361  1
  C  C530  1  0.56233063  0.55866256  0.61807937  1
  H  H531  1  0.50822880  0.86665104  0.50522449  1
  C  C532  1  0.72386636  0.53454169  0.63595226  1
  C  C533  1  0.72567960  0.74957616  0.92371361  1
  H  H534  1  0.57207356  0.53948780  0.67217547  1
  H  H535  1  0.54341085  0.64257957  0.66277182  1
  C  C536  1  0.71763524  0.97732101  0.84090676  1
  C  C537  1  0.56788155  0.52385023  0.55252104  1
  H  H538  1  0.72068431  0.56690315  0.59261524  1
  C  C539  1  0.54798936  0.61652630  0.61197179  1
  O  O540  1  0.70817978  0.91566992  0.98567301  1
  H  H541  1  0.74775148  0.94850662  0.85359513  1
  H  H542  1  0.74365757  0.56675064  0.95108534  1
  O  O543  1  0.62563437  0.93473186  0.98067713  1
  C  C544  1  0.73605270  0.51612693  0.76873600  1
  H  H545  1  0.74075192  0.53345223  0.82578788  1
  H  H546  1  0.74772302  0.65268293  0.51689344  1
  C  C547  1  0.51828238  0.82098191  0.51516231  1
  C  C548  1  0.53497719  0.70370499  0.52515086  1
  H  H549  1  0.92104545  0.24816953  0.34897663  1
  C  C550  1  0.95397154  0.35134893  0.25252346  1
  C  C551  1  0.89923838  0.36613449  0.24406207  1
  C  C552  1  0.84095174  0.04989129  0.36504807  1
  O  O553  1  0.85253298  0.25907768  0.06354773  1
  H  H554  1  0.87814793  0.36496233  0.09469082  1
  C  C555  1  0.98443306  0.45749039  0.25887760  1
  O  O556  1  0.82868406  0.11496390  0.46745258  1
  C  C557  1  0.87453852  0.26791390  0.23323616  1
  H  H558  1  0.81461843  0.07121474  0.17130654  1
  C  C559  1  0.79965014  0.33885404  0.10868453  1
  H  H560  1  0.96135267  0.45742534  0.20539322  1
  C  C561  1  0.84807048  0.10512573  0.40875110  1
  N  N562  1  0.83938552  0.17221617  0.23164147  1
  C  C563  1  0.83190200  0.34969564  0.48714954  1
  C  C564  1  0.78235162  0.45468414  0.14465874  1
  H  H565  1  0.93510984  0.20542618  0.21349587  1
  H  H566  1  0.89447098  0.07389961  0.27530724  1
  C  C567  1  0.80809303  0.27621509  0.08668804  1
  Cu  Cu568  1  0.78891832  0.02729066  0.02928291  1
  C  C569  1  0.79773579  0.14003691  0.25009772  1
  C  C570  1  0.97926451  0.36310239  0.45114473  1
  C  C571  1  0.90799553  0.43451294  0.45322741  1
  C  C572  1  0.87392923  0.47942479  0.12626674  1
  C  C573  1  0.83174879  0.43565066  0.12713505  1
  H  H574  1  0.88973402  0.41216972  0.24504124  1
  H  H575  1  0.88467630  0.49882318  0.27477752  1
  C  C576  1  0.96613283  0.29080110  0.24098541  1
  C  C577  1  0.90944488  0.27046725  0.39895618  1
  H  H578  1  0.82047005  0.34426303  0.23017337  1
  C  C579  1  0.90778877  0.24151800  0.46788676  1
  O  O580  1  0.88288138  0.14907277  0.37936194  1
  H  H581  1  0.90014743  0.47238225  0.41998033  1
  C  C582  1  0.84016567  0.37757518  0.10887873  1
  C  C583  1  0.98692633  0.06419617  0.03592865  1
  C  C584  1  0.85951937  0.32854684  0.23996852  1
  C  C585  1  0.78609809  0.09009244  0.21070050  1
  H  H586  1  0.79224468  0.23587806  0.24112851  1
  C  C587  1  0.92638126  0.25162485  0.22480567  1
  C  C588  1  0.95880467  0.49382080  0.31835517  1
  C  C589  1  0.83363530  0.22660688  0.23402190  1
  H  H590  1  0.81328095  0.35711041  0.37148084  1
  C  C591  1  0.76882363  0.15822921  0.31435890  1
  C  C592  1  0.84306929  0.35124130  0.41273278  1
  C  C593  1  0.86814489  0.04046658  0.29860105  1
  H  H594  1  0.78117693  0.19617249  0.34687341  1
  O  O595  1  0.91881325  0.46076371  0.10904979  1
  Cu  Cu596  1  0.97223780  0.49514230  0.05588533  1
  H  H597  1  0.87346456  0.14778830  0.32975111  1
  C  C598  1  0.92849796  0.37949894  0.42353504  1
  O  O599  1  0.77335769  0.24322994  0.09328195  1
  C  C600  1  0.89689650  0.33386057  0.39836350  1
  H  H601  1  0.77215518  0.12057159  0.01383851  1
  O  O602  1  0.91109572  0.02522864  0.16163646  1
  C  C603  1  0.75192766  0.35373382  0.13208421  1
  C  C604  1  0.98778869  0.39697656  0.27764906  1
  H  H605  1  0.91695331  0.19212612  0.46909735  1
  O  O606  1  0.98531661  0.18456033  0.02345531  1
  C  C607  1  0.98199845  0.00439085  0.03593096  1
  C  C608  1  0.94894294  0.09419339  0.00016698  1
  H  H609  1  0.78885540  0.01030841  0.44329516  1
  C  C610  1  0.81107941  0.00610276  0.39304999  1
  C  C611  1  0.87351587  0.32894634  0.53681340  1
  C  C612  1  0.89926081  0.24227414  0.60774785  1
  C  C613  1  0.82728341  0.07899983  0.85391112  1
  C  C614  1  0.97960106  0.46977027  0.77770406  1
  H  H615  1  0.78388951  0.32759868  0.74086376  1
  O  O616  1  0.77816633  0.01389029  0.61603850  1
  H  H617  1  0.78910850  0.10329568  0.56096922  1
  O  O618  1  0.88839872  0.02285367  0.73659568  1
  C  C619  1  0.88995535  0.07245555  0.74827845  1
  H  H620  1  0.88569240  0.47212846  0.56166203  1
  O  O621  1  0.80357544  0.30376885  0.89637499  1
  H  H622  1  0.87220031  0.09564758  0.96348187  1
  C  C623  1  0.82275353  0.26843875  0.85256137  1
  C  C624  1  0.88034407  0.26077601  0.73792256  1
  C  C625  1  0.82485733  0.33939766  0.75708676  1
  H  H626  1  0.95713371  0.47571340  0.89236664  1
  H  H627  1  0.82940177  0.03298408  0.86276392  1
  H  H628  1  0.86885550  0.32445136  0.65801125  1
  C  C629  1  0.79528894  0.17536061  0.90441489  1
  C  C630  1  0.85536147  0.10460165  0.79926748  1
  C  C631  1  0.89640899  0.27124054  0.53625958  1
  C  C632  1  0.89531149  0.40741904  0.76753701  1
  C  C633  1  0.80233710  0.11370969  0.91026301  1
  C  C634  1  0.89433625  0.20025596  0.76061491  1
  C  C635  1  0.89991187  0.00741096  0.97176409  1
  C  C636  1  0.93759337  0.10906510  0.71543158  1
  C  C637  1  0.95786421  0.36064263  0.58340156  1
  O  O638  1  0.88058907  0.43889863  0.92435256  1
  C  C639  1  0.82073766  0.20653649  0.85022712  1
  C  C640  1  0.90477448  0.31770833  0.83987237  1
  C  C641  1  0.90456337  0.06772495  0.97443274  1
  N  N642  1  0.77979602  0.40415912  0.94201950  1
  C  C643  1  0.85723554  0.29842425  0.79874747  1
  C  C644  1  0.84157601  0.16768503  0.78818798  1
  H  H645  1  0.82144346  0.16992507  0.73713111  1
  C  C646  1  0.88197399  0.27850268  0.66709678  1
  C  C647  1  0.92000870  0.18624632  0.62538524  1
  C  C648  1  0.91751285  0.16555579  0.69767685  1
  H  H649  1  0.91769143  0.19983192  0.81184971  1
  H  H650  1  0.96051777  0.38367042  0.82992495  1
  O  O651  1  0.94249412  0.06517607  0.59655475  1
  C  C652  1  0.84439516  0.39139917  0.74579617  1
  C  C653  1  0.92308135  0.36998435  0.81107282  1
  C  C654  1  0.99617684  0.35961069  0.52947686  1
  C  C655  1  0.90556571  0.37536067  0.56071076  1
  O  O656  1  0.92501216  0.28554673  0.88690171  1
  Cu  Cu657  1  0.84362039  0.36802648  0.90697705  1
  H  H658  1  0.82475733  0.42400482  0.71320532  1
  C  C659  1  0.92590130  0.45730783  0.74499430  1
  C  C660  1  0.96966643  0.10703670  0.77976524  1
  H  H661  1  0.93464354  0.15579136  0.58140318  1
  C  C662  1  0.75963891  0.18670562  0.59125804  1
  H  H663  1  0.96559236  0.35289589  0.64059827  1
  H  H664  1  0.95221430  0.09956808  0.83481104  1
  C  C665  1  0.75327214  0.10213295  0.67174477  1
  Cu  Cu666  1  0.88940109  0.26340945  0.97392012  1
  H  H667  1  0.77836324  0.19961678  0.95021067  1
  C  C668  1  0.96649817  0.08808283  0.64266791  1
  O  O669  1  0.91211034  0.18674208  0.96562540  1
  C  C670  1  0.76733020  0.45778581  0.95321682  1
  C  C671  1  0.76919386  0.04090318  0.67032827  1
  H  H672  1  0.77068613  0.20191143  0.53489579  1
  H  H673  1  0.76023287  0.37185279  0.96572850  1
  C  C674  1  0.98874492  0.48104334  0.85221981  1
  N  N675  1  0.78685718  0.09438706  0.97647153  1
  N  N676  1  0.90546662  0.48850450  0.69399432  1
  N  N677  1  0.77030350  0.01943148  0.74515740  1
  C  C678  1  0.76512016  0.12763844  0.60284275  1
  C  C679  1  0.89877739  0.43456961  0.52795973  1
  H  H680  1  0.79464242  0.36170941  0.50913342  1
  C  C681  1  0.95037341  0.15926264  0.99804871  1
  H  H682  1  0.87317596  0.49064440  0.66055777  1
  C  C683  1  0.85930717  0.48708360  0.91470500  1
  N  N684  1  0.76835373  0.92380324  0.38044214  1
  C  C685  1  0.94114622  0.97674109  0.00134293  1
  C  C686  1  0.97396510  0.76168358  0.05042829  1
  O  O687  1  0.76274745  0.63862153  0.37915797  1
  C  C688  1  0.81703090  0.60859633  0.48002960  1
  C  C689  1  0.93733802  0.77564944  0.10343829  1
  C  C690  1  0.80622394  0.95297558  0.35359183  1
  O  O691  1  0.89770451  0.93100098  0.16625886  1
  C  C692  1  0.86098158  0.98918222  0.25958534  1
  H  H693  1  0.89090095  0.57087939  0.45756485  1
  C  C694  1  0.76062262  0.80750988  0.14892455  1
  O  O695  1  0.94541941  0.81463456  0.15228481  1
  C  C696  1  0.99041726  0.51243498  0.37563487  1
  H  H697  1  0.83109506  0.81274091  0.23981382  1
  H  H698  1  0.97761709  0.53023177  0.42591166  1
  C  C699  1  0.79703116  0.77976189  0.10492629  1
  C  C700  1  0.82996937  0.94537966  0.28315699  1
  C  C701  1  0.78251431  0.76031548  0.03378821  1
  N  N702  1  0.85500251  0.79487904  0.19987675  1
  H  H703  1  0.84669245  0.67432467  0.04151875  1
  H  H704  1  0.89277810  0.54175469  0.34890210  1
  O  O705  1  0.83232565  0.59807661  0.34771582  1
  H  H706  1  0.82532310  0.90384151  0.25030775  1
  C  C707  1  0.80348348  0.61684928  0.39407004  1
  O  O708  1  0.86469148  0.52931674  0.13778093  1
  O  O709  1  0.78152435  0.84081122  0.31712070  1
  C  C710  1  0.88368936  0.69502091  0.04836632  1
  C  C711  1  0.84669956  0.76753469  0.13450098  1
  H  H712  1  0.89106059  0.78460182  0.22243544  1
  C  C713  1  0.88953778  0.74261788  0.09331210  1
  C  C714  1  0.89310757  0.98481224  0.18963017  1
  Cu  Cu715  1  0.95686864  0.89443706  0.16006419  1
  N  N716  1  0.90922893  0.50858284  0.31727843  1
  H  H717  1  0.83515386  0.88668815  0.42799362  1
  O  O718  1  0.84804308  0.86317286  0.46547444  1
  H  H719  1  0.85848573  0.86164071  0.01550331  1
  H  H720  1  0.77425393  0.50065919  0.15489786  1
  C  C721  1  0.92268624  0.68104730  0.00033710  1
  H  H722  1  0.76823753  0.81949563  0.20745909  1
  C  C723  1  0.75521667  0.87349965  0.35181977  1
  C  C724  1  0.86341865  0.58287524  0.49891021  1
  O  O725  1  0.75638383  0.98348050  0.15060869  1
  H  H726  1  0.82825082  0.83057511  0.45646738  1
  C  C727  1  0.84403001  0.59488862  0.63011272  1
  N  N728  1  0.81429014  0.97816329  0.95382782  1
  C  C729  1  0.80528224  0.50064031  0.93240610  1
  H  H730  1  0.84948058  0.69933673  0.88872555  1
  C  C731  1  0.78318110  0.55657536  0.93544909  1
  C  C732  1  0.86220364  0.96441901  0.94070157  1
  C  C733  1  0.86462511  0.58828023  0.87658556  1
  C  C734  1  0.96047517  0.66949088  0.75558590  1
  C  C735  1  0.89911076  0.84928185  0.80199724  1
  H  H736  1  0.79959916  0.64391056  0.89648578  1
  C  C737  1  0.94692875  0.72811885  0.76811010  1
  C  C738  1  0.90729723  0.87469186  0.61704175  1
  C  C739  1  0.80074970  0.62340064  0.60745015  1
  H  H740  1  0.90312811  0.72700859  0.57715921  1
  C  C741  1  0.86877449  0.85672800  0.95798177  1
  C  C742  1  0.88759394  0.90304652  0.83331444  1
  C  C743  1  0.84070569  0.80679324  0.65349437  1
  O  O744  1  0.94537463  0.54686780  0.65255260  1
  H  H745  1  0.85323838  0.58730324  0.68967323  1
  C  C746  1  0.81480867  0.59876144  0.90402313  1
  C  C747  1  0.92967620  0.56250788  0.58986800  1
  C  C748  1  0.88249610  0.69172990  0.85138445  1
  C  C749  1  0.93608681  0.62129749  0.78790486  1
  H  H750  1  0.89110740  0.94402248  0.80295316  1
  C  C751  1  0.87631106  0.80374819  0.92384054  1
  H  H752  1  0.91445278  0.84460086  0.74380852  1
  C  C753  1  0.89113576  0.81687833  0.61655425  1
  H  H754  1  0.99360572  0.80315919  0.90334483  1
  C  C755  1  0.91665987  0.77019582  0.58556848  1
  C  C756  1  0.89574979  0.63345687  0.83884819  1
  O  O757  1  0.81913367  0.84683597  0.67858527  1
  H  H758  1  0.95285927  0.97846141  0.57295620  1
  C  C759  1  0.88491364  0.53283660  0.88144158  1
  H  H760  1  0.95211425  0.57657651  0.77658906  1
  C  C761  1  0.95349703  0.88527538  0.57907124  1
  C  C762  1  0.87103308  0.90493219  0.90894324  1
  C  C763  1  0.90874286  0.74068532  0.82432842  1
  H  H764  1  0.92435416  0.52887089  0.86023314  1
  C  C765  1  0.89350448  0.79993879  0.84905304  1
  O  O766  1  0.95971073  0.56410730  0.53268349  1
  C  C767  1  0.78412524  0.62914992  0.53274476  1
  C  C768  1  0.87720599  0.57757886  0.57338811  1
  H  H769  1  0.87515479  0.76534425  0.95835838  1
  N  N770  1  0.97459820  0.94190169  0.57645967  1
  H  H771  1  0.88151705  0.91035103  0.63794473  1
  H  H772  1  0.84821818  0.72573650  0.64929692  1
  C  C773  1  0.96320272  0.78282465  0.55241328  1
  O  O774  1  0.81870146  0.74774912  0.66592481  1
  H  H775  1  0.78847009  0.95204036  0.93508545  1
  H  H776  1  0.99605769  0.84291059  0.79810910  1
  H  H777  1  0.92110160  0.65049975  0.95639254  1
  O  O778  1  0.76811394  0.72027615  0.88951921  1
  C  C779  1  0.98109245  0.83876305  0.54663001  1
  H  H780  1  0.96942372  0.76286188  0.74308497  1
  H  H781  1  0.79033391  0.98219937  0.75816030  1
  H  H782  1  0.81220417  0.74065746  0.99909524  1
  H  H783  1  0.77632340  0.69182747  0.67202970  1
  O  O784  1  0.98044108  0.68201387  0.53056963  1
  N  N785  1  0.76739329  0.64846672  0.66460594  1
  O  O786  1  0.75041614  0.63323422  0.78913590  1
  C  C787  1  0.99626798  0.73532466  0.52182685  1
  C  C788  1  0.75004679  0.61730893  0.72611404  1
  H  H789  1  0.75144526  0.69704397  0.85125013  1
  H  H790  1  0.94292453  0.93071768  0.99748268  1
  C  C791  1  0.96461295  0.71818511  0.99883276  1
