# generated using pymatgen
data_CuH8C17NO4
_symmetry_space_group_name_H-M   'P 1'
_cell_length_a   26.96511507
_cell_length_b   26.23532421
_cell_length_c   28.91922756
_cell_angle_alpha   90.00000000
_cell_angle_beta   90.00000000
_cell_angle_gamma   90.00000000
_symmetry_Int_Tables_number   1
_chemical_formula_structural   CuH8C17NO4
_chemical_formula_sum   'Cu48 H384 C816 N48 O192'
_cell_volume   20458.57601985
_cell_formula_units_Z   48
loop_
 _symmetry_equiv_pos_site_id
 _symmetry_equiv_pos_as_xyz
  1  'x, y, z'
loop_
 _atom_site_type_symbol
 _atom_site_label
 _atom_site_symmetry_multiplicity
 _atom_site_fract_x
 _atom_site_fract_y
 _atom_site_fract_z
 _atom_site_occupancy
  C  C0  1  0.12981370  0.11682709  0.06834453  1
  C  C1  1  0.10416076  0.15568899  0.09328215  1
  C  C2  1  0.11415821  0.20697179  0.08662554  1
  H  H3  1  0.07699623  0.14227656  0.11915008  1
  C  C4  1  0.14271365  0.21827501  0.04721723  1
  H  H5  1  0.17372529  0.13045604  0.12764570  1
  C  C6  1  0.16710486  0.13053419  0.03487642  1
  H  H7  1  0.09219054  0.24060582  0.10090428  1
  H  H8  1  0.18777368  0.10125004  0.01673408  1
  C  C9  1  0.17348763  0.18235405  0.02364789  1
  N  N10  1  0.11462018  0.06638809  0.08135233  1
  C  C11  1  0.06489830  0.05630396  0.08818009  1
  C  C12  1  0.07879756  0.06467700  0.19081719  1
  H  H13  1  0.15597701  0.07633495  0.16652932  1
  C  C14  1  0.20764126  0.15265343  0.14032825  1
  C  C15  1  0.12508325  0.08931488  0.18848358  1
  C  C16  1  0.21211787  0.16296658  0.18883816  1
  H  H17  1  0.22575190  0.03973389  0.07682316  1
  C  C18  1  0.13102721  0.13269716  0.21870695  1
  N  N19  1  0.17851763  0.15636778  0.22456177  1
  C  C20  1  0.03938155  0.08243676  0.21891313  1
  H  H21  1  0.03797432  0.23300560  0.05553705  1
  H  H22  1  0.07677688  0.02633320  0.17358472  1
  C  C23  1  0.14539881  0.02565824  0.09154737  1
  O  O24  1  0.02243400  0.23063018  0.12979453  1
  H  H25  1  0.01876164  0.12677225  0.07188487  1
  C  C26  1  0.02046275  0.08659728  0.08220375  1
  C  C27  1  0.19767073  0.01710382  0.09251428  1
  H  H28  1  0.11353959  0.24337508  0.17185907  1
  C  C29  1  0.00327856  0.23980804  0.16786143  1
  C  C30  1  0.06112447  0.00272546  0.10310882  1
  H  H31  1  0.24787993  0.16295328  0.07566652  1
  C  C32  1  0.24521497  0.17155748  0.11263224  1
  C  C33  1  0.04207463  0.13166160  0.24154046  1
  C  C34  1  0.08859672  0.15431688  0.24191165  1
  C  C35  1  0.25430576  0.19007986  0.20936570  1
  C  C36  1  0.28496051  0.19732411  0.13253072  1
  C  C37  1  0.35798695  0.05884449  0.05364130  1
  Cu  Cu38  1  0.40841153  0.11554277  0.11410837  1
  C  C39  1  0.28388861  0.02331411  0.02209717  1
  O  O40  1  0.42740070  0.14533382  0.16924489  1
  C  C41  1  0.29218714  0.20653119  0.17932549  1
  O  O42  1  0.36183722  0.02090225  0.07633895  1
  O  O43  1  0.39415428  0.09383652  0.05670153  1
  C  C44  1  0.31482204  0.06641377  0.02039643  1
  C  C45  1  0.41914894  0.13114885  0.21242199  1
  H  H46  1  0.32380763  0.22955041  0.19042508  1
  C  C47  1  0.32463482  0.21514324  0.09770633  1
  O  O48  1  0.39890662  0.09308585  0.22434671  1
  O  O49  1  0.30997257  0.21163695  0.05898070  1
  C  C50  1  0.46633588  0.20936275  0.23111719  1
  H  H51  1  0.46355963  0.22237623  0.19467009  1
  O  O52  1  0.36512402  0.23923838  0.10900162  1
  H  H53  1  0.44041080  0.00015236  0.04489031  1
  C  C54  1  0.44512118  0.16371916  0.24718293  1
  C  C55  1  0.04237707  0.25725725  0.20831387  1
  C  C56  1  0.09324673  0.26067571  0.20105776  1
  N  N57  1  0.13654774  0.27006075  0.03074875  1
  C  C58  1  0.00318269  0.30640792  0.03634540  1
  C  C59  1  0.00750072  0.35344400  0.01171463  1
  C  C60  1  0.04262257  0.27176523  0.04173827  1
  O  O61  1  0.07481304  0.47631927  0.07672627  1
  C  C62  1  0.09049050  0.29085408  0.02602123  1
  H  H63  1  0.22413145  0.29100654  0.18059842  1
  C  C64  1  0.22064630  0.30175163  0.21667038  1
  C  C65  1  0.12366907  0.28303048  0.23627124  1
  C  C66  1  0.00705233  0.45709150  0.24767001  1
  C  C67  1  0.01748183  0.26907812  0.24871368  1
  C  C68  1  0.17726588  0.29397715  0.24311370  1
  C  C69  1  0.14300452  0.47591623  0.24543081  1
  C  C70  1  0.24461463  0.47750713  0.24000167  1
  H  H71  1  0.00000350  0.47799190  0.21526455  1
  N  N72  1  0.09247873  0.48870697  0.24541839  1
  H  H73  1  0.24223371  0.25852002  0.02108296  1
  C  C74  1  0.17294141  0.29867610  0.00837977  1
  C  C75  1  0.09536302  0.34026906  0.00101908  1
  C  C76  1  0.22467685  0.28981933  0.00445089  1
  O  O77  1  0.35039603  0.33032883  0.23464781  1
  C  C78  1  0.26586060  0.49302099  0.02931732  1
  C  C79  1  0.26207835  0.31773515  0.24193430  1
  C  C80  1  0.38769202  0.43006287  0.04289000  1
  O  O81  1  0.49373709  0.29885326  0.10175000  1
  C  C82  1  0.44511461  0.36430594  0.06860741  1
  C  C83  1  0.47248356  0.36705442  0.02705259  1
  C  C84  1  0.45906352  0.32604278  0.10626203  1
  C  C85  1  0.30273024  0.47627347  0.05894714  1
  H  H86  1  0.29456882  0.47250759  0.09686964  1
  O  O87  1  0.43216824  0.32350449  0.14351593  1
  C  C88  1  0.34732973  0.46333488  0.03743981  1
  C  C89  1  0.40460716  0.39620872  0.07654548  1
  C  C90  1  0.31101960  0.32082923  0.21753122  1
  O  O91  1  0.31072181  0.31130471  0.17294196  1
  Cu  Cu92  1  0.36645441  0.30208252  0.14326466  1
  H  H93  1  0.39205210  0.39572074  0.11259261  1
  C  C94  1  0.29763834  0.48536583  0.24896571  1
  H  H95  1  0.14770627  0.13870700  0.31837119  1
  C  C96  1  0.17891736  0.16295862  0.31257959  1
  H  H97  1  0.19517118  0.16960728  0.38662528  1
  C  C98  1  0.20807868  0.17708824  0.35120183  1
  O  O99  1  0.21776771  0.05867118  0.41147318  1
  H  H100  1  0.09262764  0.18922017  0.26549890  1
  C  C101  1  0.19731943  0.17113291  0.26756758  1
  H  H102  1  0.01036183  0.14910883  0.25903467  1
  C  C103  1  0.24807187  0.19119154  0.26025154  1
  C  C104  1  0.25530548  0.19703310  0.34062383  1
  C  C105  1  0.25468376  0.04316967  0.42936865  1
  H  H106  1  0.40550301  0.01380188  0.40637339  1
  O  O107  1  0.27678843  0.07157046  0.45910313  1
  O  O108  1  0.28166265  0.18694678  0.42287305  1
  C  C109  1  0.27780098  0.20692113  0.29747489  1
  Cu  Cu110  1  0.31474278  0.13230238  0.44122467  1
  C  C111  1  0.28937501  0.20499912  0.38164783  1
  C  C112  1  0.41560565  0.11406334  0.42873819  1
  O  O113  1  0.42293878  0.15864896  0.43882902  1
  O  O114  1  0.36988689  0.09263450  0.43180754  1
  C  C115  1  0.45655463  0.08038821  0.41233814  1
  C  C116  1  0.44670927  0.02690154  0.40279439  1
  H  H117  1  0.33843760  0.02016877  0.46607872  1
  H  H118  1  0.42784745  0.11140586  0.30303052  1
  H  H119  1  0.31661149  0.21853334  0.29022365  1
  C  C120  1  0.44492362  0.14797944  0.29388846  1
  C  C121  1  0.46766349  0.17784411  0.32896045  1
  H  H122  1  0.46591859  0.16454677  0.36421094  1
  O  O123  1  0.32693735  0.22676400  0.37312370  1
  C  C124  1  0.49614904  0.22051785  0.31434520  1
  C  C125  1  0.49174161  0.23591296  0.26476438  1
  H  H126  1  0.47017500  0.24463886  0.41419205  1
  H  H127  1  0.24497554  0.40134052  0.26391144  1
  H  H128  1  0.13260599  0.27172055  0.46295455  1
  C  C129  1  0.04438836  0.29174996  0.28547895  1
  H  H130  1  0.06348274  0.28153032  0.37493313  1
  C  C131  1  0.02624116  0.40477724  0.33047105  1
  C  C132  1  0.09676867  0.29578814  0.28021894  1
  N  N133  1  0.13134372  0.31443076  0.31197674  1
  C  C134  1  0.12070127  0.33895679  0.35296024  1
  C  C135  1  0.08378134  0.31659726  0.38480104  1
  C  C136  1  0.11551352  0.37662561  0.44140082  1
  C  C137  1  0.08198684  0.33494895  0.42853268  1
  H  H138  1  0.17148851  0.43670671  0.41896097  1
  H  H139  1  0.17699552  0.40152967  0.33956727  1
  C  C140  1  0.14939036  0.38372291  0.36454404  1
  C  C141  1  0.14590261  0.40350050  0.40933774  1
  C  C142  1  0.17791540  0.31227957  0.29169952  1
  H  H143  1  0.03487679  0.38493236  0.36491367  1
  H  H144  1  0.09861625  0.43647819  0.32949897  1
  C  C145  1  0.06287118  0.43202698  0.30945781  1
  H  H146  1  0.05753821  0.31630746  0.45581069  1
  C  C147  1  0.22391530  0.32353126  0.31518244  1
  H  H148  1  0.22483377  0.33070865  0.35213144  1
  H  H149  1  0.02816422  0.30514810  0.31729400  1
  H  H150  1  0.24417844  0.38944418  0.46118987  1
  C  C151  1  0.05586876  0.45839381  0.26657297  1
  H  H152  1  0.10324835  0.48663624  0.48019480  1
  H  H153  1  0.14674606  0.39460774  0.26600116  1
  C  C154  1  0.21966674  0.43261060  0.25305648  1
  C  C155  1  0.16767836  0.42926050  0.25406491  1
  N  N156  1  0.13159135  0.37889812  0.48734711  1
  C  C157  1  0.14915774  0.28264979  0.49700395  1
  C  C158  1  0.28354652  0.38706734  0.47189642  1
  O  O159  1  0.26433435  0.40331332  0.37790322  1
  O  O160  1  0.32189549  0.45152317  0.27158482  1
  H  H161  1  0.30217386  0.33645792  0.30522135  1
  O  O162  1  0.34264960  0.41149475  0.35702793  1
  C  C163  1  0.30757516  0.40238737  0.38851484  1
  C  C164  1  0.38966322  0.38677697  0.49346095  1
  H  H165  1  0.39895523  0.39580404  0.41961332  1
  Cu  Cu166  1  0.35219463  0.47279559  0.32911484  1
  C  C167  1  0.32150623  0.39277832  0.43882637  1
  C  C168  1  0.26638380  0.32802132  0.28987184  1
  C  C169  1  0.37275272  0.39301193  0.44810545  1
  H  H170  1  0.18591479  0.03897594  0.65093032  1
  O  O171  1  0.12705812  0.03387164  0.71278129  1
  C  C172  1  0.17287728  0.00556716  0.63212342  1
  O  O173  1  0.24601998  0.19242883  0.71770797  1
  C  C174  1  0.23799892  0.23477116  0.58780089  1
  O  O175  1  0.23794083  0.19017424  0.57878713  1
  H  H176  1  0.18334628  0.20936390  0.51373655  1
  C  C177  1  0.10047165  0.00773605  0.68379345  1
  H  H178  1  0.46476959  0.08775408  0.67728306  1
  C  C179  1  0.38019680  0.04874451  0.59858583  1
  H  H180  1  0.40747184  0.18059752  0.69359224  1
  H  H181  1  0.37953833  0.03078696  0.69571341  1
  H  H182  1  0.27986983  0.06447206  0.61767429  1
  H  H183  1  0.31357435  0.11646613  0.71808419  1
  O  O184  1  0.37881010  0.08639396  0.62232196  1
  C  C185  1  0.39791805  0.17578173  0.72990793  1
  C  C186  1  0.28907707  0.02863780  0.59481877  1
  O  O187  1  0.42265735  0.03238671  0.58079087  1
  C  C188  1  0.38702789  0.01273946  0.73006966  1
  C  C189  1  0.47689206  0.07719481  0.71261002  1
  C  C190  1  0.33723117  0.01505741  0.58558639  1
  O  O191  1  0.44168508  0.21058363  0.56697373  1
  C  C192  1  0.46759520  0.22743095  0.64391562  1
  C  C193  1  0.43556769  0.23621453  0.60158612  1
  C  C194  1  0.33780514  0.24288611  0.71611125  1
  O  O195  1  0.35079566  0.23839686  0.67467716  1
  C  C196  1  0.48155419  0.24732327  0.72137882  1
  C  C197  1  0.36249027  0.20785805  0.74926130  1
  C  C198  1  0.17972779  0.25049182  0.52338886  1
  Cu  Cu199  1  0.23933961  0.26403933  0.70344395  1
  C  C200  1  0.20431722  0.27004232  0.56116452  1
  C  C201  1  0.17262924  0.40934786  0.55414281  1
  C  C202  1  0.18845889  0.44604456  0.58696539  1
  C  C203  1  0.17243282  0.35376218  0.55225683  1
  C  C204  1  0.20357453  0.32118699  0.57665867  1
  H  H205  1  0.20916608  0.43553987  0.61878985  1
  O  O206  1  0.22479795  0.33016384  0.70134314  1
  C  C207  1  0.14680839  0.33501973  0.51071706  1
  H  H208  1  0.22279033  0.33112213  0.60794868  1
  C  C209  1  0.14210368  0.42248661  0.51332787  1
  C  C210  1  0.20013957  0.34998014  0.73269862  1
  C  C211  1  0.16942029  0.49401551  0.58157327  1
  C  C212  1  0.12778909  0.47473315  0.50739311  1
  C  C213  1  0.45260636  0.25735270  0.68242835  1
  O  O214  1  0.26390408  0.25533290  0.62057555  1
  C  C215  1  0.36614319  0.37634375  0.65462261  1
  C  C216  1  0.33297050  0.48034846  0.65467026  1
  C  C217  1  0.36404564  0.45978650  0.69081112  1
  C  C218  1  0.47699400  0.45025733  0.72095002  1
  C  C219  1  0.43951829  0.38922269  0.51537673  1
  H  H220  1  0.28069189  0.40477540  0.70662819  1
  H  H221  1  0.46881016  0.41246296  0.70783515  1
  H  H222  1  0.45111781  0.42362793  0.63346343  1
  H  H223  1  0.37973323  0.33698641  0.65290189  1
  H  H224  1  0.42297046  0.28868840  0.68056378  1
  H  H225  1  0.27372512  0.37812677  0.54783336  1
  C  C226  1  0.25827644  0.42169320  0.73540107  1
  N  N227  1  0.39099419  0.49493381  0.71725616  1
  Cu  Cu228  1  0.33296082  0.26144940  0.61395288  1
  O  O229  1  0.30581022  0.27530685  0.72744874  1
  C  C230  1  0.32470098  0.45107788  0.61509393  1
  C  C231  1  0.35020563  0.38612317  0.52981548  1
  N  N232  1  0.37555699  0.38899804  0.57147248  1
  H  H233  1  0.30541444  0.46664077  0.58564603  1
  C  C234  1  0.46136449  0.40920589  0.59888533  1
  C  C235  1  0.37557411  0.40616643  0.69322909  1
  C  C236  1  0.34958211  0.40217909  0.61338098  1
  O  O237  1  0.40018576  0.27169280  0.60140794  1
  H  H238  1  0.39143413  0.39456135  0.72808501  1
  C  C239  1  0.44125975  0.49128894  0.72781582  1
  C  C240  1  0.29889338  0.38350016  0.51861817  1
  C  C241  1  0.42576003  0.38981044  0.56499198  1
  C  C242  1  0.48903850  0.39376318  0.50014523  1
  C  C243  1  0.17535127  0.20961526  0.88744776  1
  C  C244  1  0.16189307  0.16193017  0.90184830  1
  H  H245  1  0.12509124  0.14871684  0.89105967  1
  C  C246  1  0.07417367  0.10929522  0.84638432  1
  C  C247  1  0.05954683  0.20026861  0.84099853  1
  C  C248  1  0.19859957  0.13107450  0.92458609  1
  C  C249  1  0.14897456  0.05313517  0.94798422  1
  N  N250  1  0.19444214  0.08250564  0.94319026  1
  C  C251  1  0.02852186  0.19364381  0.88054603  1
  C  C252  1  0.08260862  0.15537597  0.82353465  1
  H  H253  1  0.03829124  0.06266785  0.90023546  1
  C  C254  1  0.04157641  0.09991468  0.88405931  1
  C  C255  1  0.10429111  0.07194856  0.96445013  1
  C  C256  1  0.10458396  0.06416341  0.83184905  1
  O  O257  1  0.13882710  0.07053363  0.79872807  1
  H  H258  1  0.11071893  0.15692046  0.79696125  1
  H  H259  1  0.14859351  0.23548221  0.87047943  1
  H  H260  1  0.22664432  0.15566036  0.84158446  1
  O  O261  1  0.20647260  0.20215300  0.78404944  1
  C  C262  1  0.22524714  0.22631201  0.89237342  1
  C  C263  1  0.06619395  0.03718561  0.97735396  1
  C  C264  1  0.01891926  0.14378288  0.90162619  1
  H  H265  1  0.09885350  0.11317204  0.96589108  1
  H  H266  1  0.06781512  0.23855854  0.82694227  1
  C  C267  1  0.23967113  0.18050837  0.75809161  1
  O  O268  1  0.09547158  0.02129396  0.84635795  1
  C  C269  1  0.23651702  0.06647295  0.96592087  1
  C  C270  1  0.24782012  0.15241447  0.93686609  1
  Cu  Cu271  1  0.16628317  0.02160883  0.76270020  1
  H  H272  1  0.20011903  0.19167653  0.99492880  1
  C  C273  1  0.24428639  0.02013845  0.99077156  1
  H  H274  1  0.02998659  0.05039887  0.99245579  1
  C  C275  1  0.25507725  0.13075984  0.82697944  1
  C  C276  1  0.26699530  0.13773170  0.77903422  1
  H  H277  1  0.26129566  0.08576880  0.88789539  1
  C  C278  1  0.37313359  0.00405746  0.81376051  1
  C  C279  1  0.26078541  0.20033019  0.91699019  1
  N  N280  1  0.34595099  0.02970240  0.84760933  1
  C  C281  1  0.27734556  0.09606837  0.85510590  1
  H  H282  1  0.46903908  0.19920626  0.88859346  1
  C  C283  1  0.35352115  0.21290986  0.79705615  1
  C  C284  1  0.38152882  0.18497020  0.82878072  1
  H  H285  1  0.37447239  0.18829333  0.86707772  1
  C  C286  1  0.41765448  0.14974958  0.80994261  1
  N  N287  1  0.44840990  0.11419115  0.83091369  1
  C  C288  1  0.46384926  0.06494697  0.89425525  1
  C  C289  1  0.45768010  0.11590085  0.87975125  1
  C  C290  1  0.47422737  0.08345379  0.80002794  1
  C  C291  1  0.31695153  0.06892963  0.83051178  1
  H  H292  1  0.36462478  0.08802386  0.92698135  1
  H  H293  1  0.29898180  0.21532341  0.92186059  1
  C  C294  1  0.37172534  0.04436281  0.92981280  1
  C  C295  1  0.32593793  0.07124540  0.78059148  1
  C  C296  1  0.47937629  0.16098554  0.90157967  1
  C  C297  1  0.26925066  0.11262361  0.96531327  1
  H  H298  1  0.44822532  0.03181719  0.87694084  1
  C  C299  1  0.36256727  0.03119657  0.77092398  1
  C  C300  1  0.30168828  0.10961403  0.75354866  1
  H  H301  1  0.42506169  0.04447406  0.98696169  1
  C  C302  1  0.40343710  0.02057750  0.96325849  1
  C  C303  1  0.34995180  0.01261901  0.89419658  1
  C  C304  1  0.49573104  0.05981834  0.93118645  1
  C  C305  1  0.31055116  0.11239015  0.99512794  1
  C  C306  1  0.46143454  0.10232848  0.75347791  1
  C  C307  1  0.42560318  0.14375702  0.76057295  1
  H  H308  1  0.32837755  0.24244234  0.80949213  1
  H  H309  1  0.33787053  0.14314771  0.99630002  1
  Cu  Cu310  1  0.18950994  0.26651569  0.77957897  1
  C  C311  1  0.00963005  0.47734138  0.79446827  1
  H  H312  1  0.02927488  0.47384066  0.82822886  1
  C  C313  1  0.02065438  0.35853798  0.84766468  1
  H  H314  1  0.07239423  0.30398646  0.87596062  1
  C  C315  1  0.03356625  0.31374196  0.87027399  1
  H  H316  1  0.10539194  0.46865286  0.86056542  1
  H  H317  1  0.14789442  0.40049496  0.79651515  1
  C  C318  1  0.18176370  0.42030815  0.78599412  1
  C  C319  1  0.19569197  0.46564209  0.80711249  1
  H  H320  1  0.15676754  0.40884442  0.94224211  1
  H  H321  1  0.05238728  0.38281197  0.83815073  1
  C  C322  1  0.22544458  0.36704539  0.95532180  1
  C  C323  1  0.17469679  0.37638319  0.96018374  1
  O  O324  1  0.20956046  0.29374074  0.84052299  1
  O  O325  1  0.05475964  0.48971024  0.92423611  1
  O  O326  1  0.23262309  0.43290605  0.90143676  1
  C  C327  1  0.24599873  0.48496855  0.79715288  1
  O  O328  1  0.16475555  0.32628675  0.75335253  1
  C  C329  1  0.21330053  0.39999717  0.75056069  1
  H  H330  1  0.05572341  0.40728700  0.97447476  1
  C  C331  1  0.24018792  0.27245250  0.86762587  1
  C  C332  1  0.14750075  0.34257638  0.98621931  1
  C  C333  1  0.13483171  0.49564358  0.87049592  1
  H  H334  1  0.23464103  0.49783257  0.95685851  1
  Cu  Cu335  1  0.00524030  0.45799199  0.95469188  1
  C  C336  1  0.05291860  0.36961003  0.99240112  1
  C  C337  1  0.27723415  0.46001665  0.76371558  1
  C  C338  1  0.34407849  0.49804632  0.82945454  1
  C  C339  1  0.35642859  0.48484995  0.98720937  1
  C  C340  1  0.25310737  0.39986255  0.92254873  1
  C  C341  1  0.25066107  0.32512946  0.97575884  1
  H  H342  1  0.31401328  0.47422480  0.75821878  1
  C  C343  1  0.41682159  0.42957832  0.99557706  1
  O  O344  1  0.29902389  0.38617465  0.91323531  1
  H  H345  1  0.48155335  0.39715254  0.95779432  1
  C  C346  1  0.45885145  0.39858976  0.98996937  1
  H  H347  1  0.42004301  0.47091645  0.82851060  1
  C  C348  1  0.45435890  0.31040186  0.83760760  1
  H  H349  1  0.44154755  0.44275050  0.89351873  1
  C  C350  1  0.31239158  0.48361852  0.95877548  1
  H  H351  1  0.29085224  0.32470953  0.97257631  1
  H  H352  1  0.33538968  0.46001116  0.81125799  1
  Cu  Cu353  1  0.31385568  0.35226802  0.85902598  1
  H  H354  1  0.31548868  0.47984253  0.92036787  1
  O  O355  1  0.28451948  0.28884979  0.87201074  1
  O  O356  1  0.37924343  0.35846365  0.83814313  1
  N  N357  1  0.39384512  0.45859809  0.96702420  1
  C  C358  1  0.26902933  0.49151556  0.98008268  1
  C  C359  1  0.41900157  0.34595761  0.86145935  1
  C  C360  1  0.47862531  0.45426742  0.87574755  1
  C  C361  1  0.44507802  0.30120901  0.79070085  1
  H  H362  1  0.40991786  0.31638425  0.77448939  1
  C  C363  1  0.47840289  0.26771465  0.76970360  1
  O  O364  1  0.42366960  0.35560116  0.90120306  1
  C  C365  1  0.49388925  0.28856351  0.86181340  1
  H  H366  1  0.49732233  0.30270442  0.89762655  1
  C  C367  1  0.19659788  0.68635900  0.07708692  1
  C  C368  1  0.18368041  0.72437745  0.04395213  1
  O  O369  1  0.16726831  0.61556698  0.12140096  1
  C  C370  1  0.15915477  0.64909301  0.08973492  1
  O  O371  1  0.11644803  0.65487046  0.07285652  1
  Cu  Cu372  1  0.06371291  0.67471632  0.11313712  1
  C  C373  1  0.09572296  0.70047024  0.21944266  1
  H  H374  1  0.17362368  0.63519786  0.20993412  1
  O  O375  1  0.13539279  0.72342468  0.20884229  1
  C  C376  1  0.09296450  0.64444688  0.22355297  1
  O  O377  1  0.05707602  0.72483661  0.22929711  1
  C  C378  1  0.13661602  0.61665623  0.21559895  1
  Cu  Cu379  1  0.15179292  0.54439299  0.11906753  1
  C  C380  1  0.04572166  0.62163121  0.23484519  1
  C  C381  1  0.13158412  0.56263049  0.22436329  1
  O  O382  1  0.08475594  0.53714766  0.12905490  1
  H  H383  1  0.14916058  0.72329152  0.02679578  1
  C  C384  1  0.08292266  0.53994745  0.23394407  1
  C  C385  1  0.16857945  0.52337557  0.23355509  1
  C  C386  1  0.21941588  0.52132377  0.22445478  1
  O  O387  1  0.21093462  0.51346156  0.09173455  1
  C  C388  1  0.03848420  0.56923187  0.23954059  1
  C  C389  1  0.24281757  0.68387619  0.09968241  1
  O  O390  1  0.18342189  0.52024618  0.02171479  1
  H  H391  1  0.01602957  0.64927109  0.24193809  1
  H  H392  1  0.00033336  0.60079863  0.09585273  1
  O  O393  1  0.00604806  0.68956628  0.14714518  1
  C  C394  1  0.21826746  0.50881839  0.04873760  1
  H  H395  1  0.23953039  0.55568586  0.21385238  1
  C  C396  1  0.05625581  0.50438952  0.10833969  1
  C  C397  1  0.00316856  0.50470347  0.11358236  1
  Cu  Cu398  1  0.11491414  0.50791034  0.03414800  1
  O  O399  1  0.06463957  0.74341730  0.10222415  1
  H  H400  1  0.25328945  0.65443206  0.12249639  1
  C  C401  1  0.49752002  0.61190907  0.12463897  1
  H  H402  1  0.41567639  0.59692387  0.11718013  1
  C  C403  1  0.43097291  0.67614402  0.11549213  1
  H  H404  1  0.39393742  0.68823556  0.10298425  1
  C  C405  1  0.44595562  0.62498201  0.12130012  1
  H  H406  1  0.32433151  0.65922224  0.03002200  1
  C  C407  1  0.27501904  0.72629827  0.09655998  1
  H  H408  1  0.31084714  0.72728642  0.11512329  1
  C  C409  1  0.47279210  0.71010737  0.11601684  1
  O  O410  1  0.28565903  0.64733774  0.24072010  1
  O  O411  1  0.31532364  0.52773051  0.23868857  1
  C  C412  1  0.34865565  0.63044854  0.01464996  1
  H  H413  1  0.31040253  0.56063323  0.03404641  1
  C  C414  1  0.34274200  0.57696037  0.01582244  1
  O  O415  1  0.48176629  0.52091106  0.12725236  1
  H  H416  1  0.49208251  0.65421102  0.04548620  1
  H  H417  1  0.00534608  0.79823549  0.06847522  1
  H  H418  1  0.01294861  0.93261924  0.11152232  1
  C  C419  1  0.21717456  0.76213452  0.03538174  1
  C  C420  1  0.01568020  0.97528955  0.10820431  1
  O  O421  1  0.13938457  0.77516390  0.12176246  1
  C  C422  1  0.09974803  0.77688644  0.09986622  1
  Cu  Cu423  1  0.14753413  0.78979886  0.18587341  1
  C  C424  1  0.21215042  0.97113590  0.11095268  1
  C  C425  1  0.11176661  0.98235116  0.10377109  1
  H  H426  1  0.15789263  0.85160829  0.08109994  1
  H  H427  1  0.10126891  0.90575410  0.13771966  1
  C  C428  1  0.12732088  0.93747949  0.12504822  1
  O  O429  1  0.16088776  0.85853608  0.16770767  1
  C  C430  1  0.18005243  0.93386531  0.12697693  1
  C  C431  1  0.19743588  0.88570581  0.14895487  1
  C  C432  1  0.12050382  0.85530930  0.06442993  1
  C  C433  1  0.08175052  0.82147381  0.07422568  1
  C  C434  1  0.11306842  0.90024154  0.03949284  1
  C  C435  1  0.03382559  0.82563330  0.05638593  1
  H  H436  1  0.14211605  0.92955706  0.03602817  1
  C  C437  1  0.02190530  0.86804288  0.02769125  1
  C  C438  1  0.04856955  0.96500088  0.23187755  1
  C  C439  1  0.06480475  0.90413020  0.02049067  1
  O  O440  1  0.23852953  0.87145599  0.15566702  1
  C  C441  1  0.21948752  0.80680166  0.00524721  1
  C  C442  1  0.00647853  0.99658888  0.22332680  1
  C  C443  1  0.04414926  0.91178082  0.23823312  1
  H  H444  1  0.08710564  0.98145999  0.23550474  1
  H  H445  1  0.07769274  0.88802574  0.24521168  1
  H  H446  1  0.38143046  0.84437872  0.24494920  1
  C  C447  1  0.26138405  0.76718003  0.06721930  1
  N  N448  1  0.28672450  0.81027590  0.05535838  1
  C  C449  1  0.34441638  0.81618138  0.12277998  1
  H  H450  1  0.25014379  0.95786811  0.11455958  1
  H  H451  1  0.36784087  0.83142216  0.00486855  1
  C  C452  1  0.26403455  0.83681953  0.01859050  1
  N  N453  1  0.47145442  0.76358162  0.11076869  1
  H  H454  1  0.29464521  0.98992683  0.04447053  1
  H  H455  1  0.31448167  0.90141571  0.00503889  1
  H  H456  1  0.39700627  0.79089059  0.17328164  1
  C  C457  1  0.47714943  0.98121038  0.04267644  1
  H  H458  1  0.31270740  0.82168004  0.14771288  1
  C  C459  1  0.37564750  0.81971389  0.04133005  1
  C  C460  1  0.49058127  0.95236226  0.00351336  1
  C  C461  1  0.42768336  0.78991924  0.10098560  1
  C  C462  1  0.42200713  0.80205701  0.05287968  1
  H  H463  1  0.45231569  0.79683504  0.02850736  1
  C  C464  1  0.39134280  0.79891516  0.13629522  1
  C  C465  1  0.33541560  0.82072154  0.07412251  1
  C  C466  1  0.48840302  0.81324270  0.24171073  1
  C  C467  1  0.48142856  0.86749769  0.24105177  1
  O  O468  1  0.13427895  0.60094673  0.40327638  1
  C  C469  1  0.09002201  0.60793658  0.40610408  1
  H  H470  1  0.10720034  0.69457964  0.30755459  1
  C  C471  1  0.07191268  0.63427020  0.44813735  1
  Cu  Cu472  1  0.02980342  0.62728053  0.32812945  1
  C  C473  1  0.11056468  0.70637015  0.34422803  1
  O  O474  1  0.05962993  0.59207458  0.37439196  1
  C  C475  1  0.01709020  0.71172561  0.35179194  1
  O  O476  1  0.01030534  0.69173188  0.31254756  1
  C  C477  1  0.06795833  0.71682664  0.37018024  1
  H  H478  1  0.20569121  0.67549043  0.28473606  1
  C  C479  1  0.15615973  0.71549653  0.36779245  1
  C  C480  1  0.20599565  0.71921188  0.34738037  1
  C  C481  1  0.02050644  0.64167073  0.45535323  1
  H  H482  1  0.14597399  0.63426785  0.47777341  1
  C  C483  1  0.10568280  0.64459209  0.48339155  1
  C  C484  1  0.22770126  0.69985978  0.30778747  1
  C  C485  1  0.06752709  0.73504824  0.41676754  1
  C  C486  1  0.15945023  0.74255516  0.41314017  1
  H  H487  1  0.03251357  0.73714311  0.43588159  1
  C  C488  1  0.11219165  0.74954304  0.43709939  1
  H  H489  1  0.00319774  0.55460422  0.25476197  1
  C  C490  1  0.27781142  0.71154192  0.30030508  1
  H  H491  1  0.29459286  0.65254517  0.37520465  1
  C  C492  1  0.34678638  0.57953263  0.34925268  1
  C  C493  1  0.36162745  0.61109174  0.38871372  1
  C  C494  1  0.40687790  0.60181128  0.41204770  1
  O  O495  1  0.30651024  0.58912044  0.32928834  1
  C  C496  1  0.32898820  0.65233684  0.39595188  1
  C  C497  1  0.33934199  0.69012636  0.42685130  1
  H  H498  1  0.43397383  0.57251759  0.40366618  1
  C  C499  1  0.41951538  0.64193939  0.44228468  1
  C  C500  1  0.38525649  0.68559314  0.45191874  1
  C  C501  1  0.46566023  0.64833369  0.47010210  1
  Cu  Cu502  1  0.29501044  0.58814776  0.26699656  1
  N  N503  1  0.41233037  0.71765644  0.48052160  1
  H  H504  1  0.31766731  0.72393101  0.43275726  1
  O  O505  1  0.37324154  0.54157826  0.33707183  1
  H  H506  1  0.45020407  0.72865362  0.33605814  1
  H  H507  1  0.42676364  0.66757666  0.27254169  1
  C  C508  1  0.46730961  0.67579162  0.26191499  1
  C  C509  1  0.30724122  0.68678442  0.26260273  1
  C  C510  1  0.30625563  0.74435589  0.32928200  1
  H  H511  1  0.47669990  0.67059851  0.35896374  1
  C  C512  1  0.48304439  0.72743619  0.25476588  1
  H  H513  1  0.49685688  0.60030810  0.26483130  1
  C  C514  1  0.45884737  0.69856368  0.49165399  1
  O  O515  1  0.48361589  0.57587619  0.34266504  1
  O  O516  1  0.34702912  0.70083675  0.25116645  1
  Cu  Cu517  1  0.03127294  0.75173448  0.28422901  1
  C  C518  1  0.23538649  0.75185153  0.37788496  1
  H  H519  1  0.11239641  0.77192906  0.46898596  1
  N  N520  1  0.20635028  0.75921443  0.41777097  1
  N  N521  1  0.03899183  0.85497860  0.46262912  1
  O  O522  1  0.14819538  0.89024043  0.26935439  1
  C  C523  1  0.13370667  0.87436005  0.35002461  1
  C  C524  1  0.08248248  0.87175335  0.34284179  1
  C  C525  1  0.13041215  0.86082301  0.43456123  1
  C  C526  1  0.07778560  0.85939927  0.43055675  1
  C  C527  1  0.05627221  0.86038129  0.38362409  1
  C  C528  1  0.15705708  0.86647225  0.39292414  1
  H  H529  1  0.19810335  0.86456022  0.39147899  1
  H  H530  1  0.06163162  0.87634304  0.31050360  1
  C  C531  1  0.16739523  0.88586964  0.30790708  1
  O  O532  1  0.21196373  0.88807054  0.31474780  1
  H  H533  1  0.14984375  0.86473995  0.46863597  1
  C  C534  1  0.21914993  0.79252661  0.45580534  1
  C  C535  1  0.00177561  0.85621686  0.38779238  1
  O  O536  1  0.03850690  0.81643787  0.26224142  1
  C  C537  1  0.19198024  0.78869155  0.49778376  1
  H  H538  1  0.22971781  0.95953319  0.36950724  1
  H  H539  1  0.48306204  0.83279904  0.41261106  1
  H  H540  1  0.35862561  0.89620182  0.31521518  1
  C  C541  1  0.48261907  0.99326967  0.39163083  1
  H  H542  1  0.27628890  0.83852530  0.41855743  1
  H  H543  1  0.34590943  0.75582074  0.32067528  1
  C  C544  1  0.28141157  0.99184404  0.42063828  1
  H  H545  1  0.41339420  0.76945275  0.40430013  1
  C  C546  1  0.42727191  0.76228467  0.33212756  1
  C  C547  1  0.25140655  0.83458551  0.44789883  1
  C  C548  1  0.26507438  0.95582034  0.38808940  1
  C  C549  1  0.37355966  0.85656961  0.31753405  1
  C  C550  1  0.46880811  0.86463149  0.43337436  1
  H  H551  1  0.28171991  0.88317162  0.35618322  1
  C  C552  1  0.41803048  0.78330933  0.28754087  1
  N  N553  1  0.38050070  0.87251309  0.39857464  1
  C  C554  1  0.32799841  0.98933284  0.44254083  1
  C  C555  1  0.41836219  0.88420680  0.42926398  1
  H  H556  1  0.47359214  0.95208258  0.39103755  1
  H  H557  1  0.27248013  0.90935287  0.47119631  1
  H  H558  1  0.30783056  0.79074972  0.39242362  1
  C  C559  1  0.44112081  0.95662406  0.48368329  1
  C  C560  1  0.40861179  0.93340978  0.45210701  1
  C  C561  1  0.40597130  0.78613094  0.36997616  1
  H  H562  1  0.44516721  0.88359410  0.25173908  1
  C  C563  1  0.25083065  0.87448885  0.48052918  1
  N  N564  1  0.45745485  0.77347615  0.25688510  1
  C  C565  1  0.34092679  0.90676517  0.40381130  1
  C  C566  1  0.38362872  0.83571117  0.36311571  1
  C  C567  1  0.38762249  0.82863141  0.27930681  1
  C  C568  1  0.35780665  0.94681748  0.43551190  1
  C  C569  1  0.28678211  0.76253784  0.37080713  1
  C  C570  1  0.48653037  0.93111339  0.49012899  1
  C  C571  1  0.29573209  0.91430230  0.37879083  1
  H  H572  1  0.45170653  0.81421040  0.49429861  1
  Cu  Cu573  1  0.10189550  0.58619604  0.64700596  1
  C  C574  1  0.16332010  0.68726854  0.58136858  1
  H  H575  1  0.19338483  0.67371651  0.56039621  1
  O  O576  1  0.15548558  0.57946587  0.61476528  1
  C  C577  1  0.11325399  0.68177871  0.56962304  1
  C  C578  1  0.08962451  0.66701768  0.52548155  1
  C  C579  1  0.07018633  0.69780408  0.59897894  1
  C  C580  1  0.16897069  0.70765735  0.62617253  1
  C  C581  1  0.22067521  0.70738873  0.64683457  1
  O  O582  1  0.05262584  0.58951673  0.68684634  1
  C  C583  1  0.03566920  0.67492803  0.52848225  1
  C  C584  1  0.12980304  0.72637143  0.65398313  1
  H  H585  1  0.13035389  0.54845998  0.54126230  1
  C  C586  1  0.08068460  0.72221056  0.64263071  1
  H  H587  1  0.05110145  0.73446183  0.66561225  1
  N  N588  1  0.02710408  0.69293374  0.57422192  1
  H  H589  1  0.13507502  0.74222221  0.68719959  1
  O  O590  1  0.22660267  0.71710203  0.69156629  1
  C  C591  1  0.17727297  0.53519000  0.61935438  1
  O  O592  1  0.20467874  0.52466949  0.64940135  1
  C  C593  1  0.01608810  0.55868260  0.68360931  1
  H  H594  1  0.00173877  0.66257417  0.66292447  1
  C  C595  1  0.14323766  0.50930954  0.54140094  1
  C  C596  1  0.00226239  0.51990802  0.71897772  1
  O  O597  1  0.25432938  0.69975654  0.62182185  1
  H  H598  1  0.32355769  0.51822103  0.65267357  1
  H  H599  1  0.29273752  0.53136120  0.71733439  1
  C  C600  1  0.32046190  0.55747358  0.73162832  1
  C  C601  1  0.37153851  0.54208134  0.73176042  1
  Cu  Cu602  1  0.28188249  0.73706600  0.72714599  1
  H  H603  1  0.31802477  0.72324507  0.52078971  1
  H  H604  1  0.27365090  0.62111096  0.74513265  1
  C  C605  1  0.31233388  0.60613191  0.74546167  1
  H  H606  1  0.49241572  0.74001511  0.69554194  1
  C  C607  1  0.41324245  0.57238451  0.74987842  1
  C  C608  1  0.45877243  0.54134589  0.74074823  1
  C  C609  1  0.00869836  0.87894207  0.58649518  1
  O  O610  1  0.05886758  0.99982118  0.69270713  1
  C  C611  1  0.02037809  0.85093687  0.69218551  1
  H  H612  1  0.10154909  0.79217460  0.60251462  1
  C  C613  1  0.04838696  0.84977910  0.73643761  1
  H  H614  1  0.06849477  0.92956430  0.62160200  1
  C  C615  1  0.10589184  0.94443388  0.61399340  1
  C  C616  1  0.04534535  0.85077388  0.61079442  1
  N  N617  1  0.05697925  0.84708152  0.65891322  1
  H  H618  1  0.15797081  0.83945629  0.61382932  1
  C  C619  1  0.15242955  0.83481662  0.65095726  1
  C  C620  1  0.19255658  0.82528335  0.68022010  1
  C  C621  1  0.10604892  0.84358362  0.67371467  1
  H  H622  1  0.23089302  0.81846732  0.66869354  1
  H  H623  1  0.21710597  0.92706347  0.65462011  1
  C  C624  1  0.10242443  0.84526964  0.72412472  1
  C  C625  1  0.18761270  0.82552996  0.72927704  1
  H  H626  1  0.11996667  0.89313056  0.55447930  1
  C  C627  1  0.18298218  0.94048546  0.57001717  1
  H  H628  1  0.16546732  0.82898268  0.55998340  1
  C  C629  1  0.13340848  0.92299685  0.57761624  1
  N  N630  1  0.22147233  0.91907972  0.54529504  1
  C  C631  1  0.19018649  0.82783450  0.53024322  1
  C  C632  1  0.07888861  0.82408903  0.53614900  1
  C  C633  1  0.07640216  0.81903566  0.58341907  1
  O  O634  1  0.19940590  0.96863816  0.73437303  1
  C  C635  1  0.20211183  0.98591091  0.59550615  1
  C  C636  1  0.12698851  0.98348979  0.64106595  1
  C  C637  1  0.04164757  0.85185361  0.51127163  1
  C  C638  1  0.21983032  0.87247403  0.51948726  1
  C  C639  1  0.00819025  0.88150157  0.53796470  1
  H  H640  1  0.10539309  0.80259365  0.51366918  1
  C  C641  1  0.23684618  0.94564468  0.74807059  1
  H  H642  1  0.17262786  0.75262628  0.50664778  1
  C  C643  1  0.31411570  0.90373035  0.72977879  1
  H  H644  1  0.49724834  0.75918986  0.53215886  1
  C  C645  1  0.25121662  0.91041032  0.66786020  1
  H  H646  1  0.43076599  0.98995689  0.50535959  1
  C  C647  1  0.32922048  0.78679692  0.56379885  1
  Cu  Cu648  1  0.47061367  0.98583292  0.60436870  1
  O  O649  1  0.43300902  0.96668319  0.65470881  1
  C  C650  1  0.44730710  0.79041122  0.73834803  1
  O  O651  1  0.27000291  0.80173501  0.74238448  1
  H  H652  1  0.27247708  0.88442923  0.59931007  1
  C  C653  1  0.39047736  0.84679134  0.70342765  1
  C  C654  1  0.40922705  0.83126614  0.55638173  1
  C  C655  1  0.34471339  0.87722934  0.69847162  1
  C  C656  1  0.25414134  0.99299422  0.58063519  1
  H  H657  1  0.44623435  0.77055097  0.62019847  1
  C  C658  1  0.44466187  0.95081334  0.69427289  1
  O  O659  1  0.47617085  0.91611942  0.70150931  1
  C  C660  1  0.39000796  0.75779266  0.50650260  1
  C  C661  1  0.26787654  0.92048712  0.71311778  1
  C  C662  1  0.26441753  0.94866637  0.55101172  1
  C  C663  1  0.35124701  0.97083204  0.55936529  1
  H  H664  1  0.29302297  0.78192039  0.58002175  1
  C  C665  1  0.31607044  0.93858624  0.54292956  1
  C  C666  1  0.46350630  0.77012532  0.69546147  1
  C  C667  1  0.42070319  0.80208346  0.51751174  1
  C  C668  1  0.34472742  0.75285093  0.53059065  1
  C  C669  1  0.43906999  0.78536529  0.65511914  1
  C  C670  1  0.32804205  0.86942449  0.65047327  1
  N  N671  1  0.36451329  0.83977979  0.62858684  1
  H  H672  1  0.32736360  0.90775442  0.51879784  1
  C  C673  1  0.28092159  0.88707690  0.63514888  1
  H  H674  1  0.43188775  0.86235924  0.56801906  1
  C  C675  1  0.42152776  0.97333132  0.73504543  1
  H  H676  1  0.39189153  0.96265207  0.55197283  1
  C  C677  1  0.41608273  0.83296582  0.74336114  1
  C  C678  1  0.40025314  0.82095477  0.65893596  1
  C  C679  1  0.36428685  0.82319924  0.58267931  1
  C  C680  1  0.21540009  0.56446653  0.89989119  1
  C  C681  1  0.17376311  0.55425461  0.92799269  1
  H  H682  1  0.17301491  0.57106125  0.96522578  1
  C  C683  1  0.21780809  0.53679937  0.85777223  1
  H  H684  1  0.24704456  0.58606008  0.91149922  1
  C  C685  1  0.13448316  0.52237944  0.91224563  1
  O  O686  1  0.08674812  0.53678750  0.97957453  1
  C  C687  1  0.09022894  0.51424840  0.94187881  1
  C  C688  1  0.17849217  0.50192261  0.84416495  1
  H  H689  1  0.05291640  0.54314627  0.77401599  1
  C  C690  1  0.02536169  0.51464293  0.76214698  1
  N  N691  1  0.25804640  0.52183456  0.83028262  1
  C  C692  1  0.48944855  0.59508351  0.86550362  1
  H  H693  1  0.29692391  0.60969603  0.87301512  1
  C  C694  1  0.30735250  0.53523439  0.84009555  1
  C  C695  1  0.32328218  0.57974353  0.86439201  1
  C  C696  1  0.48029663  0.64795383  0.87252632  1
  N  N697  1  0.46043478  0.55078235  0.86864981  1
  H  H698  1  0.44263188  0.66287403  0.87894948  1
  H  H699  1  0.38477945  0.61929217  0.89326345  1
  C  C700  1  0.37332270  0.58549297  0.87468568  1
  C  C701  1  0.40850509  0.54783293  0.86278145  1
  H  H702  1  0.43239157  0.64692312  0.78174164  1
  O  O703  1  0.37634541  0.70712298  0.81102597  1
  C  C704  1  0.34453740  0.68482262  0.78545936  1
  O  O705  1  0.30135917  0.70220015  0.77646978  1
  H  H706  1  0.44052905  0.52926494  0.95503146  1
  C  C707  1  0.42074354  0.55819171  0.97424227  1
  H  H708  1  0.47059156  0.62537638  0.96607305  1
  C  C709  1  0.40270563  0.62119095  0.76617898  1
  C  C710  1  0.35292840  0.63472281  0.76526158  1
  C  C711  1  0.38547667  0.73452535  0.97645408  1
  C  C712  1  0.43387314  0.60937340  0.97873324  1
  C  C713  1  0.37445697  0.54320158  0.99209606  1
  C  C714  1  0.39396417  0.50090897  0.83960170  1
  C  C715  1  0.49004950  0.50676101  0.87016742  1
  N  N716  1  0.41237524  0.69441548  0.99144014  1
  H  H717  1  0.30790693  0.73350466  0.99446494  1
  C  C718  1  0.46266295  0.70726288  0.99520112  1
  C  C719  1  0.39640831  0.64185023  0.99638408  1
  H  H720  1  0.19115174  0.98738298  0.91930387  1
  H  H721  1  0.04321012  0.85349665  0.81062560  1
  H  H722  1  0.15959355  0.80512063  0.95220457  1
  C  C723  1  0.19292333  0.82560209  0.96708921  1
  O  O724  1  0.13919041  0.86025608  0.89382018  1
  C  C725  1  0.17857579  0.87966728  0.89895727  1
  C  C726  1  0.21102353  0.86733663  0.94265875  1
  O  O727  1  0.22409991  0.82061710  0.80397656  1
  O  O728  1  0.19923966  0.90839413  0.86893231  1
  C  C729  1  0.12381193  0.96596701  0.95693767  1
  H  H730  1  0.13366575  0.92526521  0.95739153  1
  H  H731  1  0.14154639  0.83939876  0.78982479  1
  C  C732  1  0.07855317  0.98505543  0.97696513  1
  C  C733  1  0.02214613  0.84995123  0.77725486  1
  C  C734  1  0.22977656  0.81509660  0.75992362  1
  N  N735  1  0.04794317  0.94520432  0.99449534  1
  H  H736  1  0.22028647  0.98715052  0.98797092  1
  C  C737  1  0.14361928  0.83754080  0.75271358  1
  C  C738  1  0.15810415  0.99957202  0.93992536  1
  C  C739  1  0.35294004  0.80837469  0.91466361  1
  Cu  Cu740  1  0.37755730  0.77501764  0.82392763  1
  O  O741  1  0.44844026  0.77683002  0.81669062  1
  C  C742  1  0.33511374  0.75126576  0.97476117  1
  O  O743  1  0.25415341  0.94758557  0.79011621  1
  C  C744  1  0.33448400  0.84095365  0.87675637  1
  C  C745  1  0.47095962  0.75371312  0.96663814  1
  H  H746  1  0.27655389  0.79787403  0.94198094  1
  Cu  Cu747  1  0.25045876  0.88508631  0.82854733  1
  C  C748  1  0.31629326  0.78624859  0.94435891  1
  H  H749  1  0.41137632  0.84931571  0.77790019  1
  C  C750  1  0.43404900  0.95177112  0.77863942  1
  H  H751  1  0.42606378  0.95366617  0.85090323  1
  H  H752  1  0.46084392  0.92094743  0.78037409  1
  C  C753  1  0.47094764  0.76373446  0.77850678  1
  N  N754  1  0.45799192  0.94151239  0.96585687  1
  H  H755  1  0.42823538  0.82488966  0.89514346  1
  H  H756  1  0.33773454  0.93418515  0.86981213  1
  C  C757  1  0.46947856  0.89436709  0.88922670  1
  H  H758  1  0.49576386  0.86138147  0.82565503  1
  C  C759  1  0.40366972  0.80279443  0.91682290  1
  H  H760  1  0.32624332  0.90817167  0.76504207  1
  C  C761  1  0.41375959  0.96736847  0.95669032  1
  C  C762  1  0.35403150  0.95759371  0.89611979  1
  H  H763  1  0.27039093  0.92299382  0.93161242  1
  C  C764  1  0.41404801  0.96907145  0.81912967  1
  H  H765  1  0.38978253  0.89322057  0.92380239  1
  C  C766  1  0.38349795  0.93527817  0.92808739  1
  C  C767  1  0.42045690  0.76886670  0.95108724  1
  O  O768  1  0.36616720  0.84591852  0.84379861  1
  C  C769  1  0.25479903  0.89542712  0.95366022  1
  C  C770  1  0.48381243  0.91221653  0.93373327  1
  H  H771  1  0.43064885  0.88944212  0.87918987  1
  O  O772  1  0.29032665  0.85394345  0.87166496  1
  C  C773  1  0.28024816  0.87977635  0.99335464  1
  C  C774  1  0.56195378  0.15789554  0.09309839  1
  C  C775  1  0.59701343  0.12441662  0.11347714  1
  C  C776  1  0.62546485  0.08844460  0.09041113  1
  O  O777  1  0.58969764  0.15362760  0.19162149  1
  C  C778  1  0.60710418  0.12403796  0.16540162  1
  O  O779  1  0.63713084  0.08861915  0.18000351  1
  H  H780  1  0.65176804  0.06375987  0.10785984  1
  C  C781  1  0.54750916  0.15151748  0.04732302  1
  Cu  Cu782  1  0.61621621  0.02800780  0.19583777  1
  C  C783  1  0.61134119  0.08017414  0.04352263  1
  H  H784  1  0.54147024  0.18555346  0.11685270  1
  C  C785  1  0.57078915  0.11062865  0.02242589  1
  H  H786  1  0.51766319  0.17320050  0.03185219  1
  O  O787  1  0.58045427  0.00843687  0.13893382  1
  H  H788  1  0.50776940  0.01369732  0.10778659  1
  C  C789  1  0.62676059  0.04136195  0.00942535  1
  Cu  Cu790  1  0.74966517  0.14166964  0.23638710  1
  C  C791  1  0.65946935  0.00011556  0.00969148  1
  O  O792  1  0.75878171  0.09965310  0.04580926  1
  O  O793  1  0.88947038  0.01817029  0.10218116  1
  O  O794  1  0.76913692  0.02190953  0.18556181  1
  Cu  Cu795  1  0.84175455  0.02929633  0.06062201  1
  C  C796  1  0.84671975  0.05975800  0.19314885  1
  H  H797  1  0.93924380  0.07924736  0.08537418  1
  C  C798  1  0.87200067  0.10717670  0.19521430  1
  H  H799  1  0.84863338  0.14062820  0.19079175  1
  O  O800  1  0.84900538  0.14481087  0.04480231  1
  C  C801  1  0.92423231  0.10782383  0.20150535  1
  C  C802  1  0.97656137  0.06204472  0.09210205  1
  C  C803  1  0.79076280  0.06156437  0.18707129  1
  O  O804  1  0.76579629  0.10411416  0.18194652  1
  Cu  Cu805  1  0.78350693  0.16100577  0.02933715  1
  H  H806  1  0.88698840  0.21744562  0.02583921  1
  C  C807  1  0.88416464  0.12127048  0.02330071  1
  C  C808  1  0.94866650  0.06114097  0.21044076  1
  H  H809  1  0.94601860  0.14654428  0.20191322  1
  O  O810  1  0.88585090  0.07363585  0.02533234  1
  O  O811  1  0.79976439  0.22719486  0.00724156  1
  C  C812  1  0.76542071  0.06661368  0.01432436  1
  O  O813  1  0.79372401  0.02843637  0.02145823  1
  C  C814  1  0.97707724  0.00866652  0.10138139  1
  O  O815  1  0.95938373  0.23494243  0.17879127  1
  C  C816  1  0.82461673  0.21641316  0.22315788  1
  O  O817  1  0.80773988  0.22340444  0.18531629  1
  C  C818  1  0.87051418  0.01394785  0.20113991  1
  C  C819  1  0.92227416  0.01249642  0.20921519  1
  N  N820  1  0.99870779  0.04846869  0.21868258  1
  O  O821  1  0.80936344  0.17742908  0.24817363  1
  H  H822  1  0.50383622  0.34306707  0.02162870  1
  H  H823  1  0.67195924  0.42395448  0.19374560  1
  C  C824  1  0.70734672  0.44085816  0.20553340  1
  C  C825  1  0.55999769  0.40429656  0.20535600  1
  O  O826  1  0.58856197  0.44235241  0.21363384  1
  C  C827  1  0.52486135  0.32073702  0.22546508  1
  O  O828  1  0.53738931  0.40368484  0.16621247  1
  H  H829  1  0.50823971  0.31675136  0.19049427  1
  C  C830  1  0.71974762  0.49218760  0.19589827  1
  O  O831  1  0.64260569  0.48873438  0.15140481  1
  C  C832  1  0.55292480  0.36337465  0.23718867  1
  Cu  Cu833  1  0.50229867  0.45865227  0.14154543  1
  C  C834  1  0.73949423  0.41515352  0.23642783  1
  H  H835  1  0.72404337  0.33527405  0.01332473  1
  Cu  Cu836  1  0.58056741  0.49477766  0.18087630  1
  C  C837  1  0.73857811  0.49813625  0.03609584  1
  H  H838  1  0.73352569  0.37326536  0.24430234  1
  H  H839  1  0.99858231  0.44594199  0.06206918  1
  C  C840  1  0.75396578  0.44823742  0.01863709  1
  C  C841  1  0.92416658  0.47099497  0.08292614  1
  H  H842  1  0.96704067  0.29551467  0.04971278  1
  C  C843  1  0.96133476  0.38404331  0.01131286  1
  O  O844  1  0.92847613  0.36625378  0.03356898  1
  H  H845  1  0.92796642  0.36287542  0.21910942  1
  H  H846  1  0.85095688  0.42874058  0.08912687  1
  H  H847  1  0.79644643  0.37890473  0.03415613  1
  C  C848  1  0.97642555  0.47067697  0.08455739  1
  C  C849  1  0.79324672  0.49377808  0.23985113  1
  H  H850  1  0.90580042  0.44658472  0.05771962  1
  C  C851  1  0.86059259  0.25282323  0.24607734  1
  H  H852  1  0.93276228  0.42537640  0.24713515  1
  C  C853  1  0.81942897  0.44878867  0.07260834  1
  C  C854  1  0.79073662  0.41975925  0.04180737  1
  C  C855  1  0.87879157  0.29548529  0.22203664  1
  H  H856  1  0.86349194  0.30013516  0.18749874  1
  C  C857  1  0.91322956  0.33148863  0.23905589  1
  H  H858  1  0.84164967  0.30702153  0.01041960  1
  C  C859  1  0.61975153  0.11931235  0.36526218  1
  C  C860  1  0.59493278  0.07477791  0.37759723  1
  C  C861  1  0.54243527  0.06581188  0.39108831  1
  H  H862  1  0.60312490  0.15969786  0.36800663  1
  H  H863  1  0.63337017  0.12855059  0.45412847  1
  C  C864  1  0.66568482  0.10962156  0.34243269  1
  C  C865  1  0.69151236  0.15402669  0.32177381  1
  O  O866  1  0.67709923  0.19735183  0.32552640  1
  C  C867  1  0.69068278  0.06185811  0.33953697  1
  H  H868  1  0.72981295  0.06084375  0.32455024  1
  C  C869  1  0.61593343  0.02336503  0.37177557  1
  C  C870  1  0.53281299  0.01137273  0.38486589  1
  H  H871  1  0.51018882  0.13739381  0.41785683  1
  O  O872  1  0.73198523  0.14138343  0.29802205  1
  C  C873  1  0.58086108  0.22953853  0.47282495  1
  C  C874  1  0.61532550  0.23576137  0.43546491  1
  H  H875  1  0.65396549  0.23894767  0.44145421  1
  C  C876  1  0.64648639  0.13308085  0.49163630  1
  C  C877  1  0.66612529  0.01875457  0.35669917  1
  H  H878  1  0.68295273  0.06203007  0.49243664  1
  C  C879  1  0.50365797  0.09902377  0.40659980  1
  C  C880  1  0.52824066  0.23098685  0.46406519  1
  C  C881  1  0.74600231  0.23272623  0.47188646  1
  H  H882  1  0.50274126  0.23058627  0.49396444  1
  C  C883  1  0.59648579  0.24584219  0.39209013  1
  C  C884  1  0.54440690  0.24658502  0.38285108  1
  C  C885  1  0.51034146  0.23795584  0.41922627  1
  C  C886  1  0.76828659  0.18870805  0.44545937  1
  C  C887  1  0.77609007  0.20994689  0.39855743  1
  H  H888  1  0.77795939  0.12507129  0.49139720  1
  H  H889  1  0.80175267  0.19723543  0.32772242  1
  C  C890  1  0.78218781  0.13979952  0.45726163  1
  H  H891  1  0.83206448  0.10981069  0.34923630  1
  C  C892  1  0.79787537  0.18011828  0.36365864  1
  C  C893  1  0.81471906  0.13251573  0.37628281  1
  C  C894  1  0.80367438  0.11148610  0.42037852  1
  C  C895  1  0.82003293  0.05933620  0.42638251  1
  O  O896  1  0.82962265  0.03180375  0.39049984  1
  O  O897  1  0.81895053  0.04017901  0.46582887  1
  H  H898  1  0.87980959  0.23192256  0.40492823  1
  O  O899  1  0.87575268  0.22082883  0.48845172  1
  H  H900  1  0.86100313  0.20783396  0.30884179  1
  C  C901  1  0.87471839  0.24295657  0.29113298  1
  H  H902  1  0.62147154  0.25428504  0.36292909  1
  N  N903  1  0.53029224  0.25273236  0.33477950  1
  C  C904  1  0.68232990  0.47626013  0.38702009  1
  O  O905  1  0.66156484  0.40069771  0.34752035  1
  C  C906  1  0.58033299  0.36937084  0.27996218  1
  C  C907  1  0.57412613  0.33682191  0.31585575  1
  H  H908  1  0.59137572  0.34108397  0.34867134  1
  H  H909  1  0.60706963  0.40217445  0.28202126  1
  C  C910  1  0.64917793  0.44331797  0.35515181  1
  C  C911  1  0.54423851  0.29179747  0.30561184  1
  C  C912  1  0.71270935  0.32247211  0.45189156  1
  O  O913  1  0.60442842  0.46248208  0.34437140  1
  H  H914  1  0.70311883  0.34967545  0.42546314  1
  O  O915  1  0.58226865  0.42353428  0.48013695  1
  C  C916  1  0.72743623  0.45761689  0.40508291  1
  C  C917  1  0.51984138  0.28512188  0.26069909  1
  H  H918  1  0.74231962  0.41952884  0.39509929  1
  C  C919  1  0.73615360  0.27534686  0.43986214  1
  C  C920  1  0.70450619  0.33081772  0.49868786  1
  H  H921  1  0.50471217  0.38772282  0.46588228  1
  N  N922  1  0.75871180  0.26074092  0.39871139  1
  H  H923  1  0.75112277  0.25922933  0.30810551  1
  C  C924  1  0.75040282  0.48928806  0.43753213  1
  H  H925  1  0.90117564  0.42849565  0.34700409  1
  C  C926  1  0.93913630  0.34104733  0.36397692  1
  C  C927  1  0.95704795  0.35970180  0.40680938  1
  H  H928  1  0.81516383  0.40250616  0.47815747  1
  C  C929  1  0.77155670  0.29178717  0.32117259  1
  C  C930  1  0.97911619  0.39967908  0.30647543  1
  C  C931  1  0.77727724  0.29991953  0.37062570  1
  C  C932  1  0.78268979  0.43999888  0.25417887  1
  C  C933  1  0.90383960  0.25611507  0.48710191  1
  C  C934  1  0.79047502  0.33099020  0.29375400  1
  H  H935  1  0.97533732  0.39641461  0.40991253  1
  C  C936  1  0.82392770  0.44304128  0.48272761  1
  H  H937  1  0.79912818  0.34965922  0.43173996  1
  C  C938  1  0.80979734  0.37681565  0.31201376  1
  C  C939  1  0.79686050  0.34450342  0.39245669  1
  N  N940  1  0.94678825  0.35907951  0.31976863  1
  C  C941  1  0.90170000  0.28175627  0.31236653  1
  H  H942  1  0.82891409  0.41746225  0.37384157  1
  C  C943  1  0.92551365  0.32628669  0.28684627  1
  C  C944  1  0.90340788  0.26583718  0.40294291  1
  N  N945  1  0.81699886  0.42294701  0.28573032  1
  H  H946  1  0.96357304  0.34388290  0.48008484  1
  C  C947  1  0.91905385  0.28583654  0.44401890  1
  C  C948  1  0.96857235  0.42847690  0.26512573  1
  C  C949  1  0.81236929  0.38114310  0.36210052  1
  C  C950  1  0.88920592  0.46187277  0.32865133  1
  C  C951  1  0.85113459  0.46151292  0.29321697  1
  C  C952  1  0.94888017  0.33096828  0.44621563  1
  C  C953  1  0.79590388  0.48309341  0.46509052  1
  C  C954  1  0.91134733  0.29168224  0.36085586  1
  H  H955  1  0.97785313  0.26374098  0.25049412  1
  H  H956  1  0.79658925  0.32395174  0.25781414  1
  H  H957  1  0.68159982  0.13469221  0.62791203  1
  C  C958  1  0.67456056  0.13660802  0.59107078  1
  C  C959  1  0.64285639  0.17410813  0.57217024  1
  C  C960  1  0.68688906  0.09836347  0.55993139  1
  C  C961  1  0.62898389  0.17237428  0.52294809  1
  H  H962  1  0.56266046  0.15193345  0.68351299  1
  C  C963  1  0.53291358  0.17922670  0.68208774  1
  H  H964  1  0.62363200  0.16143740  0.71525473  1
  C  C965  1  0.52349204  0.21075813  0.72225676  1
  O  O966  1  0.51563467  0.02367845  0.64364676  1
  C  C967  1  0.51258279  0.03886240  0.72224287  1
  C  C968  1  0.53320968  0.01188223  0.68292676  1
  C  C969  1  0.62024605  0.21789707  0.59368684  1
  H  H970  1  0.64134911  0.22188420  0.66895139  1
  C  C971  1  0.71407156  0.05203746  0.58033029  1
  N  N972  1  0.59852371  0.21493558  0.51569399  1
  O  O973  1  0.72271717  0.01463076  0.55135800  1
  C  C974  1  0.67565066  0.09571004  0.51307839  1
  O  O975  1  0.72737264  0.05157728  0.61954288  1
  H  H976  1  0.51484347  0.16942657  0.60973825  1
  C  C977  1  0.73144829  0.24069838  0.51706134  1
  H  H978  1  0.73537881  0.21421792  0.54522529  1
  H  H979  1  0.67351081  0.02380110  0.74853929  1
  C  C980  1  0.61800900  0.23791614  0.64000712  1
  C  C981  1  0.50481574  0.18924368  0.64152880  1
  C  C982  1  0.58933253  0.24175189  0.55772876  1
  Cu  Cu983  1  0.76864785  0.02174616  0.50323945  1
  C  C984  1  0.50994501  0.41887122  0.58419110  1
  O  O985  1  0.71979290  0.26775517  0.60672889  1
  O  O986  1  0.66968018  0.49395360  0.59977560  1
  O  O987  1  0.60181539  0.44726632  0.54950890  1
  C  C988  1  0.71544132  0.48301792  0.59794057  1
  H  H989  1  0.53981892  0.43445547  0.60733095  1
  C  C990  1  0.58903824  0.28045194  0.64588507  1
  C  C991  1  0.58733111  0.30491248  0.69294219  1
  C  C992  1  0.56462302  0.30821094  0.60999976  1
  C  C993  1  0.56070511  0.28659870  0.56548704  1
  O  O994  1  0.56228544  0.34234468  0.69722458  1
  O  O995  1  0.68714099  0.34340863  0.59029947  1
  C  C996  1  0.70565866  0.30170024  0.57756819  1
  H  H997  1  0.53908697  0.30578463  0.53775061  1
  H  H998  1  0.54051315  0.33863390  0.61803753  1
  C  C999  1  0.71513004  0.29037239  0.52885700  1
  O  O1000  1  0.61313170  0.28564729  0.72706325  1
  H  H1001  1  0.55410408  0.42870701  0.72548447  1
  O  O1002  1  0.62660858  0.48909098  0.72905911  1
  Cu  Cu1003  1  0.74107093  0.29765084  0.66139861  1
  O  O1004  1  0.73125748  0.44017607  0.58367200  1
  C  C1005  1  0.52688203  0.46020878  0.72629269  1
  Cu  Cu1006  1  0.72031809  0.38603746  0.63001768  1
  O  O1007  1  0.74314345  0.33152470  0.71531020  1
  H  H1008  1  0.68768055  0.36862208  0.51047724  1
  C  C1009  1  0.51983801  0.41298443  0.53595318  1
  C  C1010  1  0.57025216  0.42893890  0.52024366  1
  O  O1011  1  0.84834759  0.33786975  0.61525044  1
  H  H1012  1  0.95560022  0.48751619  0.66414012  1
  O  O1013  1  0.75516509  0.40797191  0.68454385  1
  C  C1014  1  0.75319969  0.37862860  0.71908319  1
  C  C1015  1  0.86505197  0.45618001  0.51060515  1
  H  H1016  1  0.81601037  0.48086194  0.58434171  1
  C  C1017  1  0.84042626  0.31504410  0.65284521  1
  H  H1018  1  0.89863957  0.39617330  0.65325994  1
  H  H1019  1  0.79593357  0.47159922  0.73885141  1
  C  C1020  1  0.96791083  0.48417747  0.70187344  1
  O  O1021  1  0.87481015  0.36657859  0.52465873  1
  H  H1022  1  0.84908551  0.27012499  0.73614997  1
  C  C1023  1  0.89537344  0.37954500  0.68728946  1
  O  O1024  1  0.80879983  0.28165232  0.66038812  1
  C  C1025  1  0.95266425  0.44472809  0.73152323  1
  C  C1026  1  0.86505655  0.30911388  0.73594581  1
  O  O1027  1  0.92701380  0.41743740  0.55686364  1
  C  C1028  1  0.86835512  0.33507419  0.69396701  1
  C  C1029  1  0.89331485  0.41172060  0.53191286  1
  C  C1030  1  0.92030341  0.40060624  0.72518965  1
  Cu  Cu1031  1  0.88668081  0.30848908  0.56852016  1
  O  O1032  1  0.92035777  0.27347421  0.52853831  1
  C  C1033  1  0.60257374  0.12456941  0.84828416  1
  C  C1034  1  0.64343325  0.10571986  0.82218035  1
  N  N1035  1  0.67784349  0.07113756  0.84204573  1
  H  H1036  1  0.66005517  0.14485510  0.90613506  1
  C  C1037  1  0.57183931  0.16018677  0.82685595  1
  C  C1038  1  0.69893139  0.07692159  0.88490177  1
  H  H1039  1  0.59318946  0.11092471  0.88242628  1
  C  C1040  1  0.68533256  0.11401897  0.91903503  1
  H  H1041  1  0.54192442  0.17466139  0.84574286  1
  N  N1042  1  0.56147662  0.08973664  0.97953875  1
  C  C1043  1  0.70575913  0.11325539  0.96251584  1
  C  C1044  1  0.59416450  0.04876866  0.97034429  1
  C  C1045  1  0.57998909  0.17448735  0.77995990  1
  C  C1046  1  0.70185598  0.03071121  0.81902725  1
  H  H1047  1  0.57793520  0.02907279  0.89681849  1
  C  C1048  1  0.73549789  0.03576520  0.89476766  1
  H  H1049  1  0.56082032  0.24253071  0.86366913  1
  C  C1050  1  0.53158846  0.02462600  0.76535758  1
  C  C1051  1  0.52100786  0.24560052  0.79469070  1
  C  C1052  1  0.73478962  0.00545145  0.85221459  1
  C  C1053  1  0.59794796  0.01953752  0.92826101  1
  C  C1054  1  0.65151404  0.11931001  0.77486851  1
  C  C1055  1  0.52347640  0.10228284  0.94880202  1
  H  H1056  1  0.53573123  0.18492903  0.95370316  1
  H  H1057  1  0.52782154  0.03383979  0.84019044  1
  C  C1058  1  0.51191628  0.04583964  0.80508812  1
  C  C1059  1  0.51310932  0.15527091  0.93776988  1
  C  C1060  1  0.74042391  0.07140747  0.97064221  1
  H  H1061  1  0.69475016  0.13906885  0.98969155  1
  H  H1062  1  0.50174834  0.02166305  0.94901866  1
  O  O1063  1  0.64990122  0.23294953  0.89101592  1
  N  N1064  1  0.54764429  0.21286736  0.76480123  1
  C  C1065  1  0.69667593  0.00743285  0.77419671  1
  C  C1066  1  0.61936982  0.15238147  0.75329490  1
  H  H1067  1  0.68533343  0.10219978  0.75860022  1
  C  C1068  1  0.75378000  0.03265655  0.94038613  1
  O  O1069  1  0.75708057  0.20976138  0.94645376  1
  H  H1070  1  0.77749635  0.00005277  0.95503653  1
  C  C1071  1  0.78694008  0.23702831  0.96420008  1
  C  C1072  1  0.95599183  0.12688488  0.96885261  1
  H  H1073  1  0.96130075  0.08573697  0.97008319  1
  C  C1074  1  0.93773049  0.23685815  0.96810435  1
  C  C1075  1  0.97119416  0.21070982  0.93729325  1
  C  C1076  1  0.98204099  0.15666285  0.93902878  1
  N  N1077  1  0.99680250  0.23159261  0.89891564  1
  C  C1078  1  0.91127912  0.20413620  0.99699131  1
  C  C1079  1  0.91876176  0.15115160  0.99523184  1
  H  H1080  1  0.50795869  0.37673610  0.85936673  1
  C  C1081  1  0.52855447  0.25668374  0.84200483  1
  C  C1082  1  0.72113463  0.48291657  0.85448060  1
  C  C1083  1  0.51365129  0.41824632  0.86061928  1
  H  H1084  1  0.68387153  0.26806575  0.96433991  1
  C  C1085  1  0.66596567  0.26910169  0.87093675  1
  C  C1086  1  0.55942640  0.43504136  0.84166527  1
  O  O1087  1  0.58123019  0.34574066  0.82905008  1
  O  O1088  1  0.66122318  0.27362089  0.82652980  1
  H  H1089  1  0.69161295  0.36128501  0.83862249  1
  C  C1090  1  0.69724251  0.35842071  0.87713025  1
  C  C1091  1  0.71293178  0.39984892  0.90435061  1
  C  C1092  1  0.68835688  0.31155240  0.89945894  1
  Cu  Cu1093  1  0.60912661  0.29819958  0.78902465  1
  C  C1094  1  0.59296886  0.39414643  0.82277091  1
  O  O1095  1  0.63041055  0.40919721  0.80664043  1
  C  C1096  1  0.69297839  0.30620197  0.94774854  1
  C  C1097  1  0.57361305  0.48666720  0.83757593  1
  C  C1098  1  0.71417730  0.34330333  0.97606026  1
  C  C1099  1  0.72104769  0.39288787  0.95386639  1
  C  C1100  1  0.72388439  0.45456249  0.89361533  1
  H  H1101  1  0.70576026  0.46880767  0.82158410  1
  N  N1102  1  0.73839592  0.43805631  0.97212465  1
  C  C1103  1  0.74308356  0.47613913  0.93773299  1
  H  H1104  1  0.61172258  0.49548817  0.82526271  1
  C  C1105  1  0.80471009  0.36783014  0.83609502  1
  H  H1106  1  0.83256300  0.49888566  0.81488495  1
  O  O1107  1  0.95888263  0.42712781  0.98757863  1
  C  C1108  1  0.83860267  0.37587083  0.91180857  1
  C  C1109  1  0.77827131  0.35640463  0.79548565  1
  H  H1110  1  0.90044556  0.49670235  0.83930618  1
  C  C1111  1  0.93004513  0.34244618  0.86105654  1
  C  C1112  1  0.85828712  0.47360997  0.95142590  1
  C  C1113  1  0.82360505  0.45791823  0.80772708  1
  H  H1114  1  0.76374774  0.31863125  0.78544925  1
  H  H1115  1  0.89012519  0.35307316  0.85925652  1
  C  C1116  1  0.94169539  0.29741821  0.88340188  1
  H  H1117  1  0.77226515  0.27172198  0.87758301  1
  C  C1118  1  0.81029115  0.28438579  0.94373719  1
  C  C1119  1  0.91904332  0.37366660  0.77065808  1
  H  H1120  1  0.88247023  0.38574647  0.97654891  1
  C  C1121  1  0.79911193  0.44390316  0.76767078  1
  C  C1122  1  0.97573920  0.44127262  0.77828749  1
  C  C1123  1  0.79544822  0.29440512  0.89906282  1
  C  C1124  1  0.77732425  0.39517194  0.76182990  1
  C  C1125  1  0.96922089  0.36735170  0.83609386  1
  C  C1126  1  0.89334051  0.32561936  0.77360168  1
  C  C1127  1  0.86028364  0.36138519  0.95551341  1
  N  N1128  1  0.95495861  0.39691259  0.79694474  1
  C  C1129  1  0.82848130  0.41835999  0.84114035  1
  H  H1130  1  0.90304838  0.30156544  0.80300842  1
  H  H1131  1  0.83904127  0.44324663  0.97096992  1
  C  C1132  1  0.83877368  0.31707426  0.97347474  1
  C  C1133  1  0.86947682  0.46550116  0.90323109  1
  C  C1134  1  0.81188960  0.34136712  0.88080634  1
  H  H1135  1  0.93287822  0.27860219  0.97293735  1
  H  H1136  1  0.91247589  0.27830712  0.90390746  1
  N  N1137  1  0.84717111  0.42055983  0.88656198  1
  C  C1138  1  0.99268042  0.28073727  0.88378574  1
  H  H1139  1  0.57498200  0.63387689  0.13652766  1
  O  O1140  1  0.68991627  0.55706881  0.14550787  1
  C  C1141  1  0.53719905  0.64499704  0.12675872  1
  H  H1142  1  0.58269952  0.68721572  0.03220445  1
  C  C1143  1  0.55040192  0.70378695  0.01390809  1
  C  C1144  1  0.68153389  0.51565883  0.16207838  1
  O  O1145  1  0.55534119  0.54750942  0.14173182  1
  C  C1146  1  0.52524240  0.69762853  0.12391824  1
  C  C1147  1  0.51087871  0.55844936  0.13319428  1
  H  H1148  1  0.63611493  0.72925710  0.13175316  1
  H  H1149  1  0.60991402  0.71139454  0.23209989  1
  O  O1150  1  0.63723573  0.61835507  0.24685611  1
  C  C1151  1  0.50226295  0.68334256  0.01978879  1
  C  C1152  1  0.57107503  0.70264452  0.23802732  1
  C  C1153  1  0.59406638  0.60953690  0.24781045  1
  C  C1154  1  0.53405617  0.73926271  0.23945133  1
  C  C1155  1  0.55506308  0.65119897  0.24607758  1
  H  H1156  1  0.70525916  0.51609384  0.02037844  1
  O  O1157  1  0.63676684  0.74672196  0.01691719  1
  C  C1158  1  0.55474683  0.74529099  0.11971026  1
  H  H1159  1  0.99965055  0.56283987  0.16690102  1
  C  C1160  1  0.81202363  0.50073721  0.08552186  1
  H  H1161  1  0.75115177  0.55678716  0.08681663  1
  C  C1162  1  0.89918867  0.50713287  0.11044479  1
  H  H1163  1  0.76864762  0.60036436  0.12013911  1
  H  H1164  1  0.77866091  0.67302449  0.17651827  1
  C  C1165  1  0.76227957  0.51967004  0.20919677  1
  C  C1166  1  0.76577745  0.52174637  0.07018061  1
  H  H1167  1  0.77247129  0.55673310  0.19334185  1
  C  C1168  1  0.94781307  0.66552791  0.08885952  1
  C  C1169  1  0.84353231  0.56999531  0.13402256  1
  C  C1170  1  0.89119517  0.58174200  0.15578012  1
  C  C1171  1  0.80883162  0.64744648  0.16935936  1
  C  C1172  1  0.85714890  0.65793466  0.18784198  1
  C  C1173  1  0.80444088  0.60594056  0.13875552  1
  H  H1174  1  0.93230234  0.63898086  0.19631943  1
  C  C1175  1  0.97160209  0.61960814  0.07504083  1
  C  C1176  1  0.90459152  0.68298020  0.06609191  1
  H  H1177  1  0.88363485  0.71303605  0.08115731  1
  C  C1178  1  0.92806456  0.54198971  0.14189075  1
  C  C1179  1  0.96414031  0.69503759  0.12926295  1
  O  O1180  1  0.90789311  0.71742546  0.22839730  1
  C  C1181  1  0.86048126  0.70326414  0.21672537  1
  N  N1182  1  0.85084309  0.52437843  0.10938012  1
  C  C1183  1  0.97772161  0.53824479  0.14581882  1
  C  C1184  1  0.95681616  0.59200867  0.03470363  1
  C  C1185  1  0.89803241  0.62648798  0.18021423  1
  O  O1186  1  0.94048495  0.73489942  0.13963855  1
  C  C1187  1  0.89083984  0.65552352  0.02761504  1
  H  H1188  1  0.97736731  0.55835695  0.02119218  1
  H  H1189  1  0.80877930  0.73526350  0.01884358  1
  O  O1190  1  0.82526894  0.72794036  0.22763450  1
  C  C1191  1  0.91651408  0.61193912  0.00787428  1
  H  H1192  1  0.87072263  0.52261405  0.01184463  1
  H  H1193  1  0.86061707  0.58583829  0.24600836  1
  C  C1194  1  0.60629372  0.75557740  0.12241412  1
  O  O1195  1  0.69890063  0.79098036  0.14058541  1
  O  O1196  1  0.64039610  0.96419230  0.10678669  1
  C  C1197  1  0.57641219  0.93916097  0.02928832  1
  C  C1198  1  0.67196000  0.82093634  0.12320917  1
  C  C1199  1  0.61720516  0.80685744  0.11416541  1
  O  O1200  1  0.68662679  0.86842624  0.11482927  1
  C  C1201  1  0.58271870  0.84733867  0.10585971  1
  H  H1202  1  0.59797744  0.88538702  0.09847715  1
  Cu  Cu1203  1  0.66644245  0.91921264  0.15134968  1
  C  C1204  1  0.53112237  0.83886670  0.10905889  1
  O  O1205  1  0.65257433  0.91458487  0.21308198  1
  C  C1206  1  0.60916176  0.92182959  0.22597157  1
  H  H1207  1  0.61635411  0.81558849  0.21258476  1
  C  C1208  1  0.56233812  0.96752437  0.06818716  1
  H  H1209  1  0.61446239  0.92411290  0.02621223  1
  H  H1210  1  0.50526494  0.87125633  0.10600902  1
  C  C1211  1  0.51832514  0.78513313  0.11267468  1
  C  C1212  1  0.57851720  0.82923717  0.22362036  1
  O  O1213  1  0.59480493  0.96723585  0.22695124  1
  C  C1214  1  0.59630060  0.98156063  0.10642999  1
  C  C1215  1  0.56976787  0.88157919  0.22799065  1
  C  C1216  1  0.53983966  0.79566020  0.23455105  1
  C  C1217  1  0.52141678  0.90039151  0.23683046  1
  H  H1218  1  0.51713139  0.94282111  0.24301540  1
  C  C1219  1  0.51475701  0.98850645  0.07545637  1
  H  H1220  1  0.68205482  0.99182386  0.04071639  1
  H  H1221  1  0.85134419  0.97657550  0.20165016  1
  H  H1222  1  0.91392699  0.83841111  0.01077423  1
  H  H1223  1  0.91665789  0.89883128  0.21937623  1
  C  C1224  1  0.99609006  0.89179787  0.23666008  1
  C  C1225  1  0.92550958  0.98455944  0.10339735  1
  Cu  Cu1226  1  0.94712345  0.77095701  0.19413504  1
  C  C1227  1  0.97842111  0.88823049  0.00557849  1
  C  C1228  1  0.95771433  0.97139529  0.21885424  1
  C  C1229  1  0.95259478  0.91817684  0.22302200  1
  O  O1230  1  0.92109009  0.93987893  0.10539077  1
  O  O1231  1  0.95942060  0.81194405  0.24513945  1
  C  C1232  1  0.99758483  0.83849641  0.24869553  1
  H  H1233  1  0.62459841  0.61172915  0.35433080  1
  C  C1234  1  0.59839736  0.64326736  0.35618927  1
  C  C1235  1  0.54779970  0.63871424  0.35623145  1
  C  C1236  1  0.52674563  0.58620728  0.34726486  1
  C  C1237  1  0.62111778  0.69214153  0.35882415  1
  O  O1238  1  0.56219320  0.55260730  0.34733314  1
  C  C1239  1  0.68772271  0.56095710  0.42252349  1
  H  H1240  1  0.67633003  0.60148686  0.42833038  1
  H  H1241  1  0.62287040  0.53301079  0.38680250  1
  C  C1242  1  0.72012341  0.68720755  0.35280467  1
  C  C1243  1  0.66139537  0.52387321  0.39764117  1
  Cu  Cu1244  1  0.59201990  0.51152734  0.29852773  1
  C  C1245  1  0.51650935  0.68097668  0.35888949  1
  C  C1246  1  0.67257394  0.71040175  0.35617915  1
  H  H1247  1  0.72533128  0.64611176  0.35457770  1
  H  H1248  1  0.71781266  0.72720550  0.43887033  1
  H  H1249  1  0.50938266  0.57934323  0.47159082  1
  C  C1250  1  0.73287465  0.54265434  0.44107816  1
  C  C1251  1  0.73287607  0.69855380  0.46273466  1
  C  C1252  1  0.53317472  0.73201930  0.36326597  1
  C  C1253  1  0.58617227  0.73617044  0.36257251  1
  H  H1254  1  0.73756182  0.63622479  0.41467090  1
  C  C1255  1  0.74311566  0.64901760  0.45001027  1
  C  C1256  1  0.50662290  0.61835970  0.48311577  1
  C  C1257  1  0.50506984  0.64010574  0.25659911  1
  O  O1258  1  0.57772992  0.56078758  0.25159617  1
  C  C1259  1  0.76420252  0.61555832  0.48410810  1
  N  N1260  1  0.77053524  0.56489101  0.46827857  1
  O  O1261  1  0.98117512  0.72418545  0.37634263  1
  C  C1262  1  0.90625625  0.54910194  0.29822860  1
  O  O1263  1  0.92931731  0.63144273  0.27523944  1
  Cu  Cu1264  1  0.95090831  0.69906205  0.28118112  1
  C  C1265  1  0.93819434  0.59331478  0.30213218  1
  O  O1266  1  0.81706461  0.65647067  0.35833544  1
  O  O1267  1  0.97167077  0.59675590  0.33240169  1
  C  C1268  1  0.81119457  0.70202255  0.35292717  1
  C  C1269  1  0.87009298  0.55069584  0.26401744  1
  C  C1270  1  0.75939903  0.72087826  0.35191571  1
  Cu  Cu1271  1  0.91172888  0.72599480  0.36098581  1
  C  C1272  1  0.81049501  0.53569444  0.47933416  1
  C  C1273  1  0.84034757  0.50667654  0.26397858  1
  O  O1274  1  0.84795014  0.73445651  0.35535755  1
  H  H1275  1  0.95924881  0.66438231  0.49915106  1
  C  C1276  1  0.99962630  0.66156883  0.49505790  1
  C  C1277  1  0.91383098  0.50817780  0.33082201  1
  H  H1278  1  0.94428495  0.51555382  0.35786145  1
  H  H1279  1  0.99457010  0.63276657  0.42616412  1
  O  O1280  1  0.72643753  0.99038526  0.45699831  1
  H  H1281  1  0.51734783  0.91845226  0.33671797  1
  H  H1282  1  0.50798495  0.76548541  0.36500473  1
  C  C1283  1  0.66782076  0.76574624  0.35723941  1
  N  N1284  1  0.61810212  0.77747237  0.36600067  1
  C  C1285  1  0.55823639  0.85019916  0.35304634  1
  C  C1286  1  0.54975162  0.90231792  0.35559416  1
  C  C1287  1  0.63460297  0.86066501  0.39809497  1
  C  C1288  1  0.59874368  0.82692074  0.37456218  1
  C  C1289  1  0.62780503  0.91239423  0.40135769  1
  H  H1290  1  0.65395145  0.93444538  0.42186680  1
  C  C1291  1  0.58544076  0.93423340  0.37721349  1
  H  H1292  1  0.66401957  0.84523467  0.42031630  1
  H  H1293  1  0.53268087  0.82663494  0.33263181  1
  C  C1294  1  0.71004290  0.79805630  0.34875034  1
  H  H1295  1  0.70814654  0.83917928  0.34651055  1
  H  H1296  1  0.68808581  0.98288316  0.35754710  1
  H  H1297  1  0.54027753  0.87332592  0.46237542  1
  C  C1298  1  0.73803918  0.95128693  0.43411866  1
  C  C1299  1  0.73152319  0.90034299  0.45264845  1
  C  C1300  1  0.50144197  0.88865209  0.46318078  1
  N  N1301  1  0.57859026  0.98745688  0.37796213  1
  C  C1302  1  0.70824032  0.89526649  0.49529162  1
  C  C1303  1  0.72648621  0.80301548  0.49304725  1
  H  H1304  1  0.93918407  0.85360743  0.49697096  1
  C  C1305  1  0.90691321  0.86371212  0.42832796  1
  C  C1306  1  0.75033532  0.81036931  0.44952886  1
  C  C1307  1  0.75217163  0.85843013  0.42850085  1
  C  C1308  1  0.75660572  0.77644247  0.34911579  1
  H  H1309  1  0.96506904  0.86133772  0.31777505  1
  H  H1310  1  0.76818460  0.86546378  0.39460638  1
  H  H1311  1  0.79002558  0.79905737  0.34364689  1
  Cu  Cu1312  1  0.82606588  0.96234136  0.38259783  1
  C  C1313  1  0.96195839  0.86144211  0.35546637  1
  H  H1314  1  0.86838557  0.86603500  0.44094238  1
  O  O1315  1  0.87888882  0.87881516  0.30849471  1
  O  O1316  1  0.76000340  0.95421982  0.39493906  1
  C  C1317  1  0.94568041  0.85497085  0.45899801  1
  O  O1318  1  0.83250484  0.89427507  0.36883135  1
  H  H1319  1  0.77052120  0.77823020  0.43110437  1
  C  C1320  1  0.99419765  0.85474160  0.43915627  1
  C  C1321  1  0.91769521  0.86604265  0.38048151  1
  C  C1322  1  0.87457603  0.88002244  0.34994985  1
  H  H1323  1  0.68786966  0.57015310  0.64125657  1
  O  O1324  1  0.62360226  0.63239316  0.54258069  1
  C  C1325  1  0.71896080  0.67861768  0.68938260  1
  C  C1326  1  0.72810517  0.56660251  0.63373049  1
  H  H1327  1  0.70444228  0.70435598  0.60713630  1
  H  H1328  1  0.57769413  0.70916480  0.53827909  1
  H  H1329  1  0.68407525  0.65957810  0.69562167  1
  C  C1330  1  0.72897122  0.72617815  0.70802833  1
  C  C1331  1  0.54427691  0.69431279  0.52011007  1
  C  C1332  1  0.59191638  0.61277875  0.51900879  1
  C  C1333  1  0.54722299  0.64353892  0.50307233  1
  O  O1334  1  0.59517758  0.56326369  0.51024378  1
  Cu  Cu1335  1  0.62805661  0.51612252  0.54697590  1
  C  C1336  1  0.59795565  0.52300087  0.73769553  1
  C  C1337  1  0.69326828  0.74553471  0.74362752  1
  C  C1338  1  0.74355452  0.71225206  0.50982800  1
  C  C1339  1  0.54196771  0.51240474  0.73407436  1
  C  C1340  1  0.74976077  0.52338467  0.61087612  1
  C  C1341  1  0.69013263  0.74377577  0.60441390  1
  C  C1342  1  0.50026642  0.72270220  0.51532632  1
  C  C1343  1  0.51023659  0.55344354  0.74307264  1
  H  H1344  1  0.65396962  0.74877744  0.67163153  1
  O  O1345  1  0.99535102  0.55670383  0.64627015  1
  C  C1346  1  0.75605156  0.66040460  0.66100987  1
  C  C1347  1  0.76722991  0.67895242  0.54331419  1
  C  C1348  1  0.77600609  0.62811117  0.53063769  1
  H  H1349  1  0.78103116  0.69302954  0.57596279  1
  C  C1350  1  0.76052898  0.60659028  0.64199685  1
  C  C1351  1  0.80085017  0.51503762  0.60265263  1
  C  C1352  1  0.92439755  0.65643708  0.65225995  1
  C  C1353  1  0.97135233  0.67105919  0.63953824  1
  C  C1354  1  0.88694881  0.69580484  0.58065693  1
  C  C1355  1  0.93699831  0.70501325  0.56821400  1
  H  H1356  1  0.79514620  0.60149591  0.55402960  1
  H  H1357  1  0.91812745  0.63344965  0.68535706  1
  C  C1358  1  0.81263505  0.60329333  0.62839101  1
  N  N1359  1  0.83247199  0.65129449  0.63658050  1
  C  C1360  1  0.83208317  0.55555461  0.61160531  1
  H  H1361  1  0.87264764  0.55610263  0.60501652  1
  C  C1362  1  0.80317095  0.68833256  0.65452801  1
  C  C1363  1  0.88261118  0.66542768  0.62201747  1
  C  C1364  1  0.97912399  0.69305395  0.59435327  1
  H  H1365  1  0.86770354  0.58805716  0.50833611  1
  H  H1366  1  0.91774990  0.50830234  0.53826568  1
  H  H1367  1  0.85566336  0.71484926  0.56312220  1
  C  C1368  1  0.88260013  0.50731548  0.51914929  1
  H  H1369  1  0.93825947  0.72627395  0.53512384  1
  C  C1370  1  0.85655580  0.54904296  0.50244741  1
  C  C1371  1  0.80991129  0.74027380  0.66922845  1
  O  O1372  1  0.56576911  0.97591434  0.68693083  1
  C  C1373  1  0.66479234  0.76712639  0.63978458  1
  C  C1374  1  0.51956872  0.95235751  0.52778879  1
  O  O1375  1  0.61351580  0.81602417  0.71289454  1
  C  C1376  1  0.70414891  0.77449344  0.56473970  1
  O  O1377  1  0.60949864  0.88757673  0.67546680  1
  C  C1378  1  0.62558388  0.84168139  0.67853865  1
  C  C1379  1  0.64921854  0.81950424  0.63736600  1
  H  H1380  1  0.65278524  0.89008528  0.59509416  1
  C  C1381  1  0.65932649  0.85017419  0.59787993  1
  C  C1382  1  0.68592408  0.82764418  0.56163853  1
  H  H1383  1  0.69143699  0.92944707  0.51322780  1
  Cu  Cu1384  1  0.54535041  0.90601610  0.68812651  1
  C  C1385  1  0.70490924  0.84701723  0.51651591  1
  O  O1386  1  0.55830369  0.93137925  0.53064845  1
  H  H1387  1  0.72107450  0.94039852  0.73259287  1
  N  N1388  1  0.72613451  0.76051540  0.52258507  1
  O  O1389  1  0.50857842  0.99337402  0.55113894  1
  H  H1390  1  0.98693496  0.90553732  0.60711597  1
  H  H1391  1  0.94835890  0.84990912  0.65502545  1
  H  H1392  1  0.90235932  0.85522804  0.73296487  1
  C  C1393  1  0.96699663  0.85217798  0.68807711  1
  H  H1394  1  0.77627681  0.79272328  0.71543571  1
  C  C1395  1  0.94384182  0.85388618  0.73079293  1
  C  C1396  1  0.77225861  0.75561466  0.69879738  1
  H  H1397  1  0.84591162  0.76000506  0.66477812  1
  H  H1398  1  0.97944830  0.90511135  0.51969282  1
  O  O1399  1  0.65480726  0.67514715  0.85259108  1
  Cu  Cu1400  1  0.69997645  0.66738482  0.80022324  1
  C  C1401  1  0.61288280  0.69630684  0.85967429  1
  H  H1402  1  0.61745339  0.59970329  0.85514113  1
  C  C1403  1  0.58088589  0.61471397  0.85958024  1
  C  C1404  1  0.56866519  0.66527680  0.86619412  1
  C  C1405  1  0.54149326  0.57925023  0.85972212  1
  O  O1406  1  0.72022695  0.55272229  0.78749084  1
  O  O1407  1  0.73835892  0.61859636  0.83402844  1
  C  C1408  1  0.73277724  0.57119405  0.82712431  1
  C  C1409  1  0.73601957  0.53365975  0.86243832  1
  C  C1410  1  0.54093607  0.52277367  0.85710560  1
  C  C1411  1  0.51872210  0.68221432  0.87359902  1
  Cu  Cu1412  1  0.67980876  0.59095081  0.75180780  1
  H  H1413  1  0.51458036  0.72476875  0.87782163  1
  O  O1414  1  0.66374930  0.71317660  0.75987474  1
  H  H1415  1  0.52431128  0.58847161  0.75700466  1
  C  C1416  1  0.55461836  0.74884356  0.98735161  1
  O  O1417  1  0.50359128  0.73309583  0.77505276  1
  O  O1418  1  0.60909739  0.74450669  0.85859889  1
  O  O1419  1  0.61398426  0.56919982  0.75052380  1
  C  C1420  1  0.75333609  0.55629489  0.90484095  1
  H  H1421  1  0.75695521  0.59704750  0.90735367  1
  C  C1422  1  0.76176848  0.52669040  0.94280569  1
  H  H1423  1  0.77273694  0.54143332  0.97615872  1
  H  H1424  1  0.76929166  0.68442414  0.88189305  1
  C  C1425  1  0.90501367  0.54986236  0.89461601  1
  C  C1426  1  0.89647336  0.55276633  0.94310915  1
  H  H1427  1  0.83314172  0.61322982  0.88280670  1
  C  C1428  1  0.79426758  0.67890049  0.91163943  1
  C  C1429  1  0.83107837  0.64117348  0.91297906  1
  C  C1430  1  0.79051105  0.71479325  0.94891102  1
  N  N1431  1  0.89829968  0.60252559  0.96303234  1
  C  C1432  1  0.85963891  0.63576739  0.95405768  1
  H  H1433  1  0.92204880  0.58184057  0.87521290  1
  C  C1434  1  0.84941148  0.66907026  0.99495058  1
  C  C1435  1  0.81506357  0.70818385  0.99120466  1
  C  C1436  1  0.87596059  0.51588856  0.97517482  1
  C  C1437  1  0.89218347  0.50318694  0.87441578  1
  C  C1438  1  0.50550677  0.87553715  0.86006732  1
  C  C1439  1  0.51823914  0.77368887  0.96183015  1
  C  C1440  1  0.63341496  0.98154150  0.92724682  1
  C  C1441  1  0.53633230  0.90810899  0.94832864  1
  C  C1442  1  0.55616280  0.87369697  0.87632493  1
  Cu  Cu1443  1  0.63733686  0.79049798  0.89998000  1
  O  O1444  1  0.70079257  0.91308048  0.92068054  1
  O  O1445  1  0.61841395  0.80485606  0.96310019  1
  O  O1446  1  0.58199254  0.84462473  0.80098597  1
  C  C1447  1  0.59186838  0.85808587  0.84183921  1
  O  O1448  1  0.63363341  0.84661702  0.85952581  1
  H  H1449  1  0.63977312  0.95855153  0.89522774  1
  C  C1450  1  0.57250964  0.88721644  0.91963171  1
  H  H1451  1  0.61236697  0.88433788  0.92892474  1
  C  C1452  1  0.66156357  0.97267761  0.96776141  1
  C  C1453  1  0.69614572  0.93111057  0.96117211  1
  Cu  Cu1454  1  0.71580769  0.84453634  0.91342156  1
  H  H1455  1  0.52500183  0.80736390  0.94197524  1
  Cu  Cu1456  1  0.63836555  0.82294108  0.77353915  1
  O  O1457  1  0.71944919  0.91525362  0.99712817  1
  C  C1458  1  0.72150232  0.96128551  0.76612339  1
  C  C1459  1  0.60864261  0.76609544  0.99068904  1
  O  O1460  1  0.74107972  0.77818265  0.91425883  1
  C  C1461  1  0.74640174  0.93644808  0.80274231  1
  H  H1462  1  0.55944760  0.99526187  0.77007739  1
  C  C1463  1  0.53990434  0.92959289  0.99546883  1
  O  O1464  1  0.69657099  0.78909052  0.76059231  1
  C  C1465  1  0.90214189  0.90500532  0.96822669  1
  O  O1466  1  0.89123455  0.85809018  0.81561706  1
  C  C1467  1  0.77467412  0.88678512  0.80193815  1
  H  H1468  1  0.98653758  0.99679535  0.93604839  1
  H  H1469  1  0.89461270  0.97213263  0.92454326  1
  C  C1470  1  0.96956866  0.85147872  0.77213480  1
  O  O1471  1  0.95991597  0.84998246  0.85320673  1
  C  C1472  1  0.94007810  0.85453405  0.81702214  1
  C  C1473  1  0.75422110  0.95600615  0.84693850  1
  O  O1474  1  0.76538479  0.78957837  0.98654293  1
  C  C1475  1  0.99901661  0.93670607  0.98395954  1
  O  O1476  1  0.78136786  0.86726616  0.76478091  1
  Cu  Cu1477  1  0.85439400  0.88052444  0.86343697  1
  O  O1478  1  0.82744763  0.86081778  0.98114092  1
  O  O1479  1  0.79034885  0.86748698  0.84021980  1
  Cu  Cu1480  1  0.75850754  0.85825011  0.99132184  1
  C  C1481  1  0.76581338  0.76438957  0.94801915  1
  C  C1482  1  0.91978373  0.94989226  0.94704555  1
  C  C1483  1  0.85055539  0.88870427  0.95426270  1
  H  H1484  1  0.78031458  0.93785686  0.87321922  1
  O  O1485  1  0.82854522  0.90781092  0.92047699  1
  C  C1486  1  0.96812629  0.96537433  0.95391422  1
  C  C1487  1  0.92890561  0.87349588  0.99825122  1
