# generated using pymatgen
data_Zn11H60C126(N3O22)2
_symmetry_space_group_name_H-M   'P 1'
_cell_length_a   34.10038054
_cell_length_b   32.85092261
_cell_length_c   32.98460529
_cell_angle_alpha   90.00000000
_cell_angle_beta   90.00000000
_cell_angle_gamma   90.00000000
_symmetry_Int_Tables_number   1
_chemical_formula_structural   Zn11H60C126(N3O22)2
_chemical_formula_sum   'Zn44 H240 C504 N24 O176'
_cell_volume   36950.31015586
_cell_formula_units_Z   4
loop_
 _symmetry_equiv_pos_site_id
 _symmetry_equiv_pos_as_xyz
  1  'x, y, z'
loop_
 _atom_site_type_symbol
 _atom_site_label
 _atom_site_symmetry_multiplicity
 _atom_site_fract_x
 _atom_site_fract_y
 _atom_site_fract_z
 _atom_site_occupancy
  O  O0  1  0.23228651  0.15968647  0.20850258  1
  O  O1  1  0.13391636  0.24904326  0.23478088  1
  H  H2  1  0.25177301  0.09436728  0.24309322  1
  C  C3  1  0.27224835  0.08710592  0.21795173  1
  C  C4  1  0.26185230  0.15406999  0.18602165  1
  O  O5  1  0.27469739  0.18259269  0.16513552  1
  C  C6  1  0.29137899  0.04861554  0.21298666  1
  C  C7  1  0.28575706  0.11615024  0.18873551  1
  C  C8  1  0.31931829  0.04351630  0.18187717  1
  C  C9  1  0.31797898  0.11207832  0.16180609  1
  H  H10  1  0.32464640  0.13778992  0.14171250  1
  C  C11  1  0.33884200  0.07563828  0.16009688  1
  O  O12  1  0.37182791  0.07201253  0.13545709  1
  H  H13  1  0.43152091  0.04849462  0.09349132  1
  C  C14  1  0.38216677  0.03368460  0.13010594  1
  C  C15  1  0.41490297  0.02219867  0.10705157  1
  H  H16  1  0.27657031  0.02294696  0.22927776  1
  O  O17  1  0.47994274  0.00290965  0.05807265  1
  N  N18  1  0.32972366  0.00260503  0.17134819  1
  Zn  Zn19  1  0.26279713  0.24652255  0.17026105  1
  H  H20  1  0.38465289  0.24604555  0.15338408  1
  H  H21  1  0.06048996  0.26325908  0.24580628  1
  O  O22  1  0.22423871  0.26457075  0.12314201  1
  O  O23  1  0.23371555  0.25719574  0.22061085  1
  C  C24  1  0.19485033  0.28727024  0.11672850  1
  C  C25  1  0.21341701  0.29042190  0.04405398  1
  O  O26  1  0.17255264  0.29975187  0.14584755  1
  Zn  Zn27  1  0.18519060  0.28324683  0.20598430  1
  C  C28  1  0.18658873  0.30177431  0.07572752  1
  H  H29  1  0.13580613  0.33905996  0.08788217  1
  C  C30  1  0.15448497  0.32665857  0.06448268  1
  C  C31  1  0.14712464  0.34020581  0.02643238  1
  O  O32  1  0.11272444  0.36570980  0.01523068  1
  O  O33  1  0.18049403  0.33695386  0.24316765  1
  C  C34  1  0.20693996  0.30282774  0.00501964  1
  H  H35  1  0.23827422  0.26904175  0.05408831  1
  O  O36  1  0.31997079  0.26335067  0.18449353  1
  H  H37  1  0.44874927  0.36930408  0.22111790  1
  C  C38  1  0.39825135  0.27450144  0.16622666  1
  H  H39  1  0.49635224  0.30040492  0.22616032  1
  O  O40  1  0.44521231  0.44942815  0.01142983  1
  C  C41  1  0.37777268  0.30123235  0.19304306  1
  C  C42  1  0.44941038  0.37006942  0.10785802  1
  C  C43  1  0.48195419  0.41446175  0.06167068  1
  H  H44  1  0.42467781  0.35452796  0.11974263  1
  C  C45  1  0.39566263  0.33292874  0.21605958  1
  C  C46  1  0.48762446  0.36616176  0.12643228  1
  H  H47  1  0.45610717  0.26606269  0.14207720  1
  C  C48  1  0.44598124  0.39520312  0.07489071  1
  H  H49  1  0.41715111  0.39802382  0.06061466  1
  C  C50  1  0.47866270  0.44337726  0.02692331  1
  C  C51  1  0.43357096  0.34325857  0.20541470  1
  N  N52  1  0.48927257  0.33989703  0.15930902  1
  C  C53  1  0.45450687  0.32157068  0.17520610  1
  C  C54  1  0.43628587  0.28602009  0.15900379  1
  O  O55  1  0.31590734  0.31582666  0.22562260  1
  C  C56  1  0.33525180  0.29309981  0.20323014  1
  H  H57  1  0.38009962  0.35135534  0.23754665  1
  C  C58  1  0.05716160  0.17610221  0.33213065  1
  O  O59  1  0.05527598  0.14727590  0.36126430  1
  H  H60  1  0.11923359  0.17088826  0.32366647  1
  C  C61  1  0.09133502  0.18590310  0.31224180  1
  H  H62  1  0.04038255  0.10203920  0.42290346  1
  C  C63  1  0.09241140  0.21754633  0.28254216  1
  C  C64  1  0.01313054  0.11599957  0.41135905  1
  C  C65  1  0.02210293  0.19875174  0.31871387  1
  C  C66  1  0.01867230  0.14082414  0.37803829  1
  O  O67  1  0.16148460  0.20648059  0.27676955  1
  H  H68  1  0.02610263  0.23157152  0.48074710  1
  Zn  Zn69  1  0.22158064  0.20549110  0.25135994  1
  C  C70  1  0.02280821  0.22916553  0.28788700  1
  O  O71  1  0.00729058  0.06719695  0.47532797  1
  H  H72  1  0.07180145  0.08277103  0.48333914  1
  C  C73  1  0.05841964  0.23866677  0.27096910  1
  O  O74  1  0.08249167  0.01121627  0.48688414  1
  C  C75  1  0.13064317  0.22583041  0.26424786  1
  O  O76  1  0.25794998  0.19907959  0.30395767  1
  C  C77  1  0.33034671  0.24338524  0.42180872  1
  H  H78  1  0.27454096  0.15469505  0.36465135  1
  O  O79  1  0.48114543  0.06784138  0.38968950  1
  H  H80  1  0.31470003  0.14121022  0.42789285  1
  C  C81  1  0.28951201  0.17942676  0.38029698  1
  C  C82  1  0.31052509  0.17220318  0.41492402  1
  H  H83  1  0.43438071  0.12069054  0.36886938  1
  C  C84  1  0.39134129  0.14951129  0.41349424  1
  C  C85  1  0.42426419  0.12713028  0.40087390  1
  H  H86  1  0.37152241  0.16385971  0.39060353  1
  C  C87  1  0.33143925  0.20347231  0.43799518  1
  C  C88  1  0.38695779  0.16259425  0.45500036  1
  C  C89  1  0.44518094  0.11112959  0.43391499  1
  N  N90  1  0.36176002  0.19377604  0.46626915  1
  C  C91  1  0.44166818  0.12278709  0.47446019  1
  C  C92  1  0.41227606  0.14800614  0.48791397  1
  C  C93  1  0.28956166  0.21980548  0.36621998  1
  C  C94  1  0.47803847  0.08027783  0.42381221  1
  H  H95  1  0.46151545  0.11133567  0.49754557  1
  C  C96  1  0.27034304  0.22726530  0.32624447  1
  O  O97  1  0.01153987  0.49699314  0.47029787  1
  C  C98  1  0.20630275  0.45772871  0.31600844  1
  H  H99  1  0.12271779  0.42737851  0.36205343  1
  C  C100  1  0.21688562  0.42237657  0.29629507  1
  H  H101  1  0.07257563  0.41432834  0.41571494  1
  C  C102  1  0.11179307  0.45411056  0.38058060  1
  C  C103  1  0.08396236  0.44619984  0.41036588  1
  C  C104  1  0.16533584  0.46917095  0.31847242  1
  H  H105  1  0.23056285  0.47613170  0.33091343  1
  C  C106  1  0.06422972  0.47937470  0.42917842  1
  C  C107  1  0.02957906  0.46762779  0.45448471  1
  C  C108  1  0.18719123  0.39841843  0.28008838  1
  C  C109  1  0.13685241  0.44420205  0.29978769  1
  H  H110  1  0.10602754  0.45341807  0.30285256  1
  C  C111  1  0.14700267  0.40708056  0.28091846  1
  C  C112  1  0.12253549  0.49592558  0.37365189  1
  H  H113  1  0.24821972  0.41507997  0.29516271  1
  O  O114  1  0.02119409  0.43063164  0.45892113  1
  O  O115  1  0.23955377  0.35205025  0.26328033  1
  O  O116  1  0.00106479  0.30643903  0.48295582  1
  C  C117  1  0.20395922  0.35841512  0.26321362  1
  H  H118  1  0.12465881  0.38547414  0.26809975  1
  O  O119  1  0.26599867  0.26424865  0.31759142  1
  H  H120  1  0.31342436  0.25352119  0.49107609  1
  H  H121  1  0.34563808  0.26860705  0.43577184  1
  Zn  Zn122  1  0.26473586  0.29187052  0.25676913  1
  H  H123  1  0.30878297  0.28326985  0.37598591  1
  C  C124  1  0.30608952  0.25251037  0.38887723  1
  H  H125  1  0.16944060  0.12587968  0.58534754  1
  C  C126  1  0.14535446  0.07353332  0.55206783  1
  H  H127  1  0.16578248  0.04929013  0.56086812  1
  C  C128  1  0.14613987  0.11263733  0.56686805  1
  N  N129  1  0.11466198  0.17971163  0.56978749  1
  C  C130  1  0.11756458  0.14123001  0.55192117  1
  C  C131  1  0.14482739  0.18861712  0.59930560  1
  C  C132  1  0.19953858  0.19780150  0.66397519  1
  C  C133  1  0.18425513  0.20164735  0.59166278  1
  C  C134  1  0.09132673  0.20970710  0.55559158  1
  C  C135  1  0.11685384  0.06504940  0.52317728  1
  C  C136  1  0.08994396  0.13466579  0.51863543  1
  C  C137  1  0.16179063  0.18563103  0.67224463  1
  C  C138  1  0.13453251  0.18337210  0.64044444  1
  H  H139  1  0.10681593  0.16963771  0.64756563  1
  H  H140  1  0.15560238  0.17479912  0.70478493  1
  C  C141  1  0.21022482  0.20606437  0.62295775  1
  H  H142  1  0.19340567  0.21160896  0.56066800  1
  C  C143  1  0.11338402  0.02095635  0.50876581  1
  C  C144  1  0.09060571  0.09402697  0.50674276  1
  O  O145  1  0.23276632  0.19162743  0.73114315  1
  C  C146  1  0.23380724  0.19835770  0.69357857  1
  C  C147  1  0.04507963  0.23435411  0.50792668  1
  O  O148  1  0.06530829  0.16330975  0.50254201  1
  C  C149  1  0.06548633  0.19928389  0.52069148  1
  Zn  Zn150  1  0.02333779  0.01046759  0.50783529  1
  C  C151  1  0.09184540  0.24612658  0.57806924  1
  H  H152  1  0.24087325  0.21446892  0.61757162  1
  H  H153  1  0.11074587  0.24682320  0.60594346  1
  C  C154  1  0.37948296  0.20339608  0.57484024  1
  H  H155  1  0.39637155  0.18909346  0.59900295  1
  C  C156  1  0.38361650  0.18807775  0.53622520  1
  O  O157  1  0.41156848  0.15920053  0.52695440  1
  Zn  Zn158  1  0.36547185  0.22989533  0.72399479  1
  O  O159  1  0.26609661  0.21063516  0.67907644  1
  C  C160  1  0.35241162  0.23454120  0.58340981  1
  C  C161  1  0.33166933  0.23984407  0.51492254  1
  O  O162  1  0.37112454  0.23209631  0.65259831  1
  C  C163  1  0.35191006  0.24962321  0.62593617  1
  C  C164  1  0.35937066  0.20749935  0.50611760  1
  O  O165  1  0.00356301  0.48697066  0.57072639  1
  N  N166  1  0.15520300  0.48325487  0.68090189  1
  H  H167  1  0.22100046  0.49108157  0.72321691  1
  C  C168  1  0.12276558  0.47434482  0.65630499  1
  C  C169  1  0.05640631  0.46360641  0.61080003  1
  C  C170  1  0.18043032  0.45135151  0.69087754  1
  C  C171  1  0.02217380  0.45783666  0.58374240  1
  O  O172  1  0.13602645  0.40237289  0.65561434  1
  H  H173  1  0.06887716  0.39989056  0.61249959  1
  C  C174  1  0.17015926  0.41126181  0.67605719  1
  C  C175  1  0.11349336  0.43330271  0.64437079  1
  C  C176  1  0.07919287  0.43075460  0.62125894  1
  H  H177  1  0.19021707  0.34976646  0.67624316  1
  C  C178  1  0.19714063  0.38158864  0.68513946  1
  O  O179  1  0.01228173  0.42103650  0.57475624  1
  C  C180  1  0.21664745  0.45926728  0.71269832  1
  H  H181  1  0.06617593  0.30607611  0.58032360  1
  C  C182  1  0.07029912  0.27828883  0.56277859  1
  C  C183  1  0.23319997  0.38926481  0.70444928  1
  C  C184  1  0.24504028  0.42909700  0.71575286  1
  Zn  Zn185  1  0.00289488  0.39228591  0.51642857  1
  C  C186  1  0.02529854  0.30700984  0.51086515  1
  C  C187  1  0.04803914  0.27114708  0.52770234  1
  O  O188  1  0.03609542  0.34033975  0.52724449  1
  O  O189  1  0.24996501  0.31888403  0.68987718  1
  H  H190  1  0.30674965  0.27547500  0.56608265  1
  C  C191  1  0.32799209  0.25310066  0.55570482  1
  H  H192  1  0.27340337  0.43310746  0.73237393  1
  O  O193  1  0.29005874  0.35549580  0.72706170  1
  O  O194  1  0.33027901  0.27978045  0.63562750  1
  C  C195  1  0.25942055  0.35269574  0.70677502  1
  O  O196  1  0.41451342  0.26848485  0.74917633  1
  Zn  Zn197  1  0.28796913  0.27145940  0.68330628  1
  O  O198  1  0.31514539  0.25882096  0.73483898  1
  H  H199  1  0.22737343  0.23374609  0.88572959  1
  H  H200  1  0.29893027  0.10605983  0.81403396  1
  C  C201  1  0.43960458  0.01765174  0.90371444  1
  H  H202  1  0.29951982  0.03396730  0.83493798  1
  C  C203  1  0.32574567  0.08859872  0.80742826  1
  C  C204  1  0.32669681  0.04856344  0.82100234  1
  H  H205  1  0.39948071  0.05046784  0.86466657  1
  C  C206  1  0.36209416  0.02664382  0.81160140  1
  C  C207  1  0.41130800  0.01947589  0.87441362  1
  H  H208  1  0.45362319  0.04584437  0.91524741  1
  C  C209  1  0.35523057  0.10801851  0.78491671  1
  C  C210  1  0.39216462  0.04665157  0.78949821  1
  C  C211  1  0.38953865  0.08737480  0.77535391  1
  O  O212  1  0.31583489  0.16694722  0.78398182  1
  H  H213  1  0.41878707  0.02707884  0.78590731  1
  C  C214  1  0.34911950  0.15316830  0.77592095  1
  Zn  Zn215  1  0.28061826  0.21759360  0.76606922  1
  H  H216  1  0.41084996  0.10185558  0.75351885  1
  O  O217  1  0.27249595  0.24440970  0.82668283  1
  O  O218  1  0.37379030  0.17125870  0.75561471  1
  H  H219  1  0.17531104  0.26263280  0.93971697  1
  C  C220  1  0.19728216  0.27942396  0.92158492  1
  H  H221  1  0.15537059  0.36535996  0.88207773  1
  H  H222  1  0.10801405  0.42038299  0.85894815  1
  C  C223  1  0.19361175  0.32304038  0.92485754  1
  C  C224  1  0.13497882  0.37818290  0.90323561  1
  C  C225  1  0.10987827  0.40861434  0.89072111  1
  C  C226  1  0.08207718  0.42057942  0.92136969  1
  C  C227  1  0.13533609  0.36442791  0.94479311  1
  C  C228  1  0.04990845  0.45022447  0.91019530  1
  N  N229  1  0.16566354  0.33759828  0.95333644  1
  C  C230  1  0.08164666  0.40366123  0.95976474  1
  C  C231  1  0.22423150  0.26601527  0.89371047  1
  C  C232  1  0.10953122  0.37740416  0.97754370  1
  C  C233  1  0.21666883  0.35160958  0.90257530  1
  O  O234  1  0.04781027  0.46892619  0.87792794  1
  H  H235  1  0.22681009  0.29240198  0.98205863  1
  C  C236  1  0.24314518  0.29491572  0.86939113  1
  H  H237  1  0.21450190  0.38343221  0.91142747  1
  O  O238  1  0.02251061  0.45443654  0.93619364  1
  Zn  Zn239  1  0.00270478  0.47984792  0.99072674  1
  H  H240  1  0.05700502  0.41508866  0.97876513  1
  C  C241  1  0.17239474  0.32832263  0.99437879  1
  C  C242  1  0.24295302  0.33811442  0.87364154  1
  O  O243  1  0.28647829  0.30894884  0.81599085  1
  H  H244  1  0.48042650  0.25712800  0.76585994  1
  Zn  Zn245  1  0.32219090  0.30840006  0.76452012  1
  C  C246  1  0.41664858  0.30245693  0.76641521  1
  H  H247  1  0.26228525  0.35917547  0.85440264  1
  C  C248  1  0.26997705  0.28099329  0.83635288  1
  C  C249  1  0.45634112  0.35123251  0.81160243  1
  C  C250  1  0.48296691  0.28716320  0.78310202  1
  H  H251  1  0.42932404  0.37197054  0.81258638  1
  O  O252  1  0.47232281  0.49512826  0.91600265  1
  C  C253  1  0.49088546  0.36090564  0.83214628  1
  C  C254  1  0.45398666  0.31497612  0.78836135  1
  O  O255  1  0.49601366  0.39492880  0.85255135  1
  O  O256  1  0.38835989  0.32582139  0.77040205  1
  H  H257  1  0.11324252  0.65753511  0.07715441  1
  C  C258  1  0.17875606  0.66171919  0.07570826  1
  C  C259  1  0.18175569  0.67381830  0.11582430  1
  H  H260  1  0.07398111  0.59390754  0.08720228  1
  C  C261  1  0.08628159  0.60196253  0.05701712  1
  C  C262  1  0.16614264  0.69201433  0.04678484  1
  C  C263  1  0.10968833  0.63631635  0.05134025  1
  C  C264  1  0.08362834  0.57453500  0.02411925  1
  C  C265  1  0.06628804  0.53399799  0.03319027  1
  C  C266  1  0.16466719  0.73456447  0.05638354  1
  C  C267  1  0.18005445  0.71580470  0.12697658  1
  C  C268  1  0.12714583  0.64394313  0.01246913  1
  O  O269  1  0.05217610  0.52788330  0.06812970  1
  H  H270  1  0.18370631  0.62869203  0.06854666  1
  O  O271  1  0.19600815  0.69950937  0.19499906  1
  C  C272  1  0.18286683  0.72505601  0.17047328  1
  H  H273  1  0.18606256  0.65126237  0.13908414  1
  Zn  Zn274  1  0.23751080  0.70233276  0.24626023  1
  C  C275  1  0.17308677  0.74556709  0.09586165  1
  N  N276  1  0.15412214  0.67534416  0.00869346  1
  O  O277  1  0.05857683  0.51174695  0.00284941  1
  H  H278  1  0.19503957  0.73996546  0.00024660  1
  C  C279  1  0.46495702  0.60719361  0.04520336  1
  H  H280  1  0.40645908  0.59958275  0.06073247  1
  C  C281  1  0.40127879  0.67516005  0.15642189  1
  O  O282  1  0.39702438  0.64784966  0.12554348  1
  C  C283  1  0.42954535  0.64168392  0.10136420  1
  C  C284  1  0.43212840  0.61662422  0.06861554  1
  H  H285  1  0.34336323  0.66732026  0.18054699  1
  C  C286  1  0.37002906  0.68572113  0.18304643  1
  C  C287  1  0.43573981  0.70024478  0.16464675  1
  C  C288  1  0.46603101  0.66225219  0.11190616  1
  N  N289  1  0.46948816  0.68657290  0.14586738  1
  C  C290  1  0.36984226  0.71549444  0.21336648  1
  C  C291  1  0.43679560  0.73116563  0.19597782  1
  C  C292  1  0.45872961  0.57613542  0.01331108  1
  O  O293  1  0.30202932  0.70124694  0.22601593  1
  C  C294  1  0.40415214  0.73896182  0.21915606  1
  O  O295  1  0.42427000  0.55895900  0.00936048  1
  C  C296  1  0.33184165  0.72109593  0.23537774  1
  H  H297  1  0.15755111  0.75962951  0.03368633  1
  H  H298  1  0.17837862  0.77710346  0.10135576  1
  O  O299  1  0.17861255  0.76159977  0.17757294  1
  Zn  Zn300  1  0.19703148  0.79279975  0.23711853  1
  O  O301  1  0.22968996  0.84888872  0.21686225  1
  H  H302  1  0.22585345  0.91922498  0.18959698  1
  H  H303  1  0.07504678  0.81362649  0.24991799  1
  H  H304  1  0.46358811  0.75057562  0.20254581  1
  H  H305  1  0.36851627  0.94883974  0.22101449  1
  H  H306  1  0.25718127  0.98528341  0.16188234  1
  C  C307  1  0.25672247  0.92706292  0.19367202  1
  C  C308  1  0.26435881  0.85794778  0.22512917  1
  C  C309  1  0.36097076  0.99775715  0.14527542  1
  O  O310  1  0.47204419  0.93635882  0.06921330  1
  C  C311  1  0.33804273  0.94147991  0.21253897  1
  C  C312  1  0.46205746  0.97377993  0.07477204  1
  C  C313  1  0.40534860  0.94807307  0.11348478  1
  C  C314  1  0.32065983  0.90566836  0.22502100  1
  C  C315  1  0.37308230  0.95695592  0.13704265  1
  C  C316  1  0.28026936  0.89881682  0.21524187  1
  O  O317  1  0.28707169  0.83018267  0.23811083  1
  H  H318  1  0.33609504  0.88153133  0.23981737  1
  H  H319  1  0.35510779  0.93136625  0.14869624  1
  C  C320  1  0.27245423  0.96267321  0.18181442  1
  C  C321  1  0.42713215  0.98245883  0.10081294  1
  H  H322  1  0.41342123  0.91574674  0.10748915  1
  C  C323  1  0.31276705  0.96984141  0.19227638  1
  H  H324  1  0.40452459  0.76090182  0.24512671  1
  C  C325  1  0.14892443  0.57270828  0.36210911  1
  O  O326  1  0.12054309  0.56892702  0.38941290  1
  C  C327  1  0.16723710  0.60991663  0.35235256  1
  H  H328  1  0.15788410  0.63754768  0.37111474  1
  O  O329  1  0.19782042  0.68817273  0.34219503  1
  C  C330  1  0.19610434  0.61713904  0.32353302  1
  C  C331  1  0.21317718  0.66037905  0.32264777  1
  C  C332  1  0.16452148  0.54070347  0.33623133  1
  C  C333  1  0.10739668  0.53013642  0.39751486  1
  H  H334  1  0.06346570  0.54422859  0.43930302  1
  C  C335  1  0.07742395  0.51915808  0.42325973  1
  C  C336  1  0.19358744  0.54694023  0.30481171  1
  C  C337  1  0.20974346  0.58468543  0.29832641  1
  H  H338  1  0.20209520  0.52031666  0.28733293  1
  O  O339  1  0.24351133  0.66832160  0.30279348  1
  H  H340  1  0.23331661  0.58807985  0.27569811  1
  N  N341  1  0.15183506  0.50166881  0.34470873  1
  O  O342  1  0.33151126  0.74748427  0.26311543  1
  Zn  Zn343  1  0.20405645  0.75497229  0.32468226  1
  O  O344  1  0.00396844  0.95930479  0.47081815  1
  H  H345  1  0.01095888  0.78562089  0.38655608  1
  H  H346  1  0.08333273  0.77798067  0.37462951  1
  O  O347  1  0.22555532  0.75487774  0.26874734  1
  C  C348  1  0.00454721  0.81376809  0.32513702  1
  O  O349  1  0.14558737  0.77848191  0.33306083  1
  C  C350  1  0.02523567  0.79359150  0.35720197  1
  C  C351  1  0.06501853  0.78720783  0.34970150  1
  H  H352  1  0.03276280  0.86750634  0.36295438  1
  H  H353  1  0.03385482  0.91624059  0.42177184  1
  C  C354  1  0.08277673  0.79544780  0.31062827  1
  C  C355  1  0.12573511  0.78712354  0.30199391  1
  C  C356  1  0.02090887  0.82089392  0.28621593  1
  C  C357  1  0.00509457  0.87867003  0.37588067  1
  C  C358  1  0.05997923  0.80968441  0.27867328  1
  C  C359  1  0.00605110  0.90532313  0.40722175  1
  H  H360  1  0.23601506  0.78226955  0.44370985  1
  O  O361  1  0.24113597  0.77129359  0.36950488  1
  O  O362  1  0.13910480  0.79071711  0.26798810  1
  H  H363  1  0.00703300  0.84220440  0.26611856  1
  O  O364  1  0.28188081  0.81184238  0.33828205  1
  C  C365  1  0.39206613  0.93538826  0.49404858  1
  H  H366  1  0.40650572  0.94918911  0.46919583  1
  C  C367  1  0.30737903  0.84694289  0.48081479  1
  C  C368  1  0.26668314  0.79997451  0.36956279  1
  C  C369  1  0.26090150  0.80324819  0.44320952  1
  C  C370  1  0.27488885  0.81850807  0.47946476  1
  C  C371  1  0.30916191  0.84886305  0.40952042  1
  H  H372  1  0.31841957  0.85891034  0.37875283  1
  O  O373  1  0.35383430  0.89282167  0.44798888  1
  C  C374  1  0.32571308  0.86337187  0.44562696  1
  Zn  Zn375  1  0.27928409  0.78048692  0.27977448  1
  C  C376  1  0.28105502  0.81825094  0.40948205  1
  C  C377  1  0.36389936  0.90594387  0.48492657  1
  H  H378  1  0.10830121  0.53921380  0.65504271  1
  C  C379  1  0.16759955  0.52442069  0.68858829  1
  C  C380  1  0.14357539  0.54771284  0.71584940  1
  C  C381  1  0.18847545  0.60303128  0.70563266  1
  H  H382  1  0.04917900  0.53000596  0.61164898  1
  C  C383  1  0.20342189  0.53969602  0.67138108  1
  C  C384  1  0.21473773  0.57867774  0.68148192  1
  C  C385  1  0.19787919  0.64483440  0.71723927  1
  C  C386  1  0.15312980  0.58829149  0.72275725  1
  H  H387  1  0.11761288  0.53474033  0.72926325  1
  C  C388  1  0.09930104  0.50878083  0.64438827  1
  C  C389  1  0.06589785  0.50391140  0.62111652  1
  O  O390  1  0.17605584  0.66710172  0.73903178  1
  H  H391  1  0.13576327  0.61057957  0.74300429  1
  H  H392  1  0.22055654  0.51873750  0.65047789  1
  O  O393  1  0.23030032  0.65845528  0.70442751  1
  H  H394  1  0.24553759  0.59041271  0.67556350  1
  Zn  Zn395  1  0.25803071  0.71583086  0.71824932  1
  H  H396  1  0.35263088  0.63225363  0.73339788  1
  H  H397  1  0.42133806  0.60526972  0.73303135  1
  H  H398  1  0.49237394  0.69087828  0.72420752  1
  C  C399  1  0.41540003  0.63673529  0.74528633  1
  C  C400  1  0.37716262  0.65102922  0.74608167  1
  H  H401  1  0.05441372  0.75294294  0.74876825  1
  C  C402  1  0.01875966  0.79288689  0.71299142  1
  H  H403  1  0.03346923  0.95200689  0.60942276  1
  C  C404  1  0.05090421  0.85435238  0.68152196  1
  O  O405  1  0.05025783  0.88795341  0.65682333  1
  C  C406  1  0.08545193  0.84275732  0.69993720  1
  H  H407  1  0.11244804  0.86158942  0.69920022  1
  C  C408  1  0.08747901  0.80642771  0.72224927  1
  Zn  Zn409  1  0.21160364  0.80445379  0.73315222  1
  O  O410  1  0.21975163  0.78851004  0.66884339  1
  C  C411  1  0.01712623  0.82924616  0.68881254  1
  C  C412  1  0.05362703  0.78190327  0.73091808  1
  H  H413  1  0.22124240  0.85069794  0.61743210  1
  C  C414  1  0.01651343  0.89774005  0.63948197  1
  C  C415  1  0.24912187  0.83866095  0.60443864  1
  O  O416  1  0.15167271  0.81989196  0.74042227  1
  C  C417  1  0.12411897  0.79438026  0.74301025  1
  C  C418  1  0.00905788  0.93137372  0.61435058  1
  O  O419  1  0.13474306  0.99508793  0.52196342  1
  O  O420  1  0.44818642  0.99517918  0.50216256  1
  H  H421  1  0.25139080  0.88467968  0.55880347  1
  H  H422  1  0.32049057  0.76165537  0.61884285  1
  H  H423  1  0.26107400  0.80831867  0.50725438  1
  H  H424  1  0.35267746  0.80318737  0.55939184  1
  H  H425  1  0.34806183  0.88445369  0.58684843  1
  C  C426  1  0.26922695  0.80434734  0.62015902  1
  C  C427  1  0.40237879  0.95013965  0.53216398  1
  C  C428  1  0.30179128  0.84319452  0.55599336  1
  C  C429  1  0.26453872  0.85734469  0.57007867  1
  C  C430  1  0.34580951  0.89000731  0.52253277  1
  C  C431  1  0.25295497  0.78175366  0.65595944  1
  O  O432  1  0.44742887  0.98604324  0.56817281  1
  H  H433  1  0.39283051  0.94523843  0.59910897  1
  C  C434  1  0.32355790  0.80944061  0.57288343  1
  C  C435  1  0.35822455  0.90279334  0.56176045  1
  C  C436  1  0.38544656  0.93309425  0.56847401  1
  C  C437  1  0.43381779  0.97962320  0.53280946  1
  N  N438  1  0.31699688  0.85963709  0.52023544  1
  O  O439  1  0.27582792  0.75731530  0.67179221  1
  C  C440  1  0.30606092  0.78944772  0.60485914  1
  C  C441  1  0.16987803  0.67939920  0.89897395  1
  H  H442  1  0.16309484  0.66247394  0.87070123  1
  C  C443  1  0.15427030  0.66394556  0.93520075  1
  O  O444  1  0.13369209  0.62905054  0.93926358  1
  C  C445  1  0.16713188  0.68698876  0.97077449  1
  H  H446  1  0.09821799  0.56170718  0.96317287  1
  C  C447  1  0.18979514  0.72387105  0.97123345  1
  C  C448  1  0.19436074  0.71377219  0.89950951  1
  O  O449  1  0.20505589  0.70615271  0.82988038  1
  C  C450  1  0.21163519  0.72847225  0.85965353  1
  C  C451  1  0.11995306  0.61851121  0.97588180  1
  C  C452  1  0.20449953  0.73661298  0.93454809  1
  Zn  Zn453  1  0.18082608  0.72414934  0.77079501  1
  C  C454  1  0.10146039  0.58345629  0.98675354  1
  C  C455  1  0.44498143  0.51855974  0.90489651  1
  C  C456  1  0.46943203  0.60822364  0.81080386  1
  C  C457  1  0.45301939  0.54835417  0.87073196  1
  H  H458  1  0.40855225  0.62561336  0.82334621  1
  H  H459  1  0.39249511  0.57298331  0.87242643  1
  C  C460  1  0.42215929  0.57501610  0.85906766  1
  C  C461  1  0.43173908  0.60389254  0.83022533  1
  C  C462  1  0.44105706  0.70055791  0.78133819  1
  C  C463  1  0.44512317  0.65969238  0.76622214  1
  C  C464  1  0.40266883  0.71564208  0.78044932  1
  H  H465  1  0.46658174  0.71648904  0.79536933  1
  N  N466  1  0.47670704  0.63528536  0.77973480  1
  C  C467  1  0.37353432  0.68910430  0.76547605  1
  O  O468  1  0.41415191  0.51901194  0.92635422  1
  C  C469  1  0.33187013  0.70400074  0.76875059  1
  H  H470  1  0.39380353  0.74465237  0.79670394  1
  C  C471  1  0.49012936  0.55466949  0.85372846  1
  Zn  Zn472  1  0.41935408  0.50019505  0.98491230  1
  O  O473  1  0.32780760  0.73907656  0.78374986  1
  O  O474  1  0.48541622  0.56459545  0.99053617  1
  O  O475  1  0.30304456  0.68546359  0.75447734  1
  O  O476  1  0.23456369  0.75769265  0.85470527  1
  H  H477  1  0.22039422  0.76511196  0.93292675  1
  O  O478  1  0.12744702  0.76145034  0.76259814  1
  O  O479  1  0.23050996  0.75150960  0.75565435  1
  O  O480  1  0.24799824  0.85828225  0.75652547  1
  H  H481  1  0.26301063  0.93093185  0.75022805  1
  H  H482  1  0.30829917  0.99002089  0.76867980  1
  N  N483  1  0.36902017  0.98640150  0.82562230  1
  H  H484  1  0.43310253  0.91175697  0.91770445  1
  C  C485  1  0.47906951  0.97237919  0.95003486  1
  C  C486  1  0.39542638  0.98230630  0.85668152  1
  C  C487  1  0.40169616  0.94172242  0.87325690  1
  C  C488  1  0.28774387  0.92823957  0.77356776  1
  C  C489  1  0.44836421  0.97742755  0.91845263  1
  O  O490  1  0.38126805  0.90955056  0.85940487  1
  Zn  Zn491  1  0.26912963  0.75912831  0.80064834  1
  C  C492  1  0.29569092  0.89068828  0.79345965  1
  H  H493  1  0.32998731  0.85479749  0.83821129  1
  C  C494  1  0.27245928  0.85457596  0.78498193  1
  O  O495  1  0.48292899  0.93809279  0.96647894  1
  C  C496  1  0.34384911  0.95395873  0.81340389  1
  O  O497  1  0.28439553  0.82222796  0.80216012  1
  C  C498  1  0.31420530  0.95907435  0.78305947  1
  C  C499  1  0.35038632  0.91563181  0.83202351  1
  C  C500  1  0.32556290  0.88426991  0.82283370  1
  C  C501  1  0.42950339  0.94332059  0.90408969  1
  C  C502  1  0.60347585  0.11507868  0.09748449  1
  H  H503  1  0.58935981  0.14542364  0.09783775  1
  C  C504  1  0.63007673  0.10505909  0.12690816  1
  H  H505  1  0.64208858  0.12605853  0.14950207  1
  C  C506  1  0.59190636  0.08428452  0.07104847  1
  C  C507  1  0.67527382  0.07992169  0.19370842  1
  C  C508  1  0.64421503  0.06347114  0.12883188  1
  N  N509  1  0.66718397  0.05179594  0.16185907  1
  C  C510  1  0.60732473  0.04457475  0.07109946  1
  C  C511  1  0.71528148  0.09290740  0.19894355  1
  C  C512  1  0.55964239  0.09538177  0.04001088  1
  C  C513  1  0.64569453  0.09626267  0.21951218  1
  O  O514  1  0.54122919  0.12593293  0.03908248  1
  C  C515  1  0.72558925  0.12286433  0.22590383  1
  H  H516  1  0.61539360  0.08668660  0.21447794  1
  H  H517  1  0.73750223  0.07594477  0.17865408  1
  O  O518  1  0.55642838  0.06828484  0.01159709  1
  Zn  Zn519  1  0.52597829  0.01274521  0.01767881  1
  C  C520  1  0.63352577  0.03172273  0.10047052  1
  H  H521  1  0.59606539  0.02402701  0.04753981  1
  C  C522  1  0.65480387  0.12700609  0.24723140  1
  C  C523  1  0.68010835  0.01198118  0.16491929  1
  C  C524  1  0.69357234  0.14158677  0.24808209  1
  H  H525  1  0.70940688  0.02559905  0.22422071  1
  C  C526  1  0.70393553  0.00266178  0.20051811  1
  H  H527  1  0.75622152  0.13476176  0.22863127  1
  H  H528  1  0.78689740  0.22961199  0.13998354  1
  H  H529  1  0.82763311  0.22965199  0.07660347  1
  O  O530  1  0.50868748  0.45892535  0.01079820  1
  C  C531  1  0.52482282  0.33628481  0.17985608  1
  H  H532  1  0.54475182  0.42009977  0.06043666  1
  C  C533  1  0.55915267  0.35660375  0.16256730  1
  O  O534  1  0.55898510  0.37779691  0.12902791  1
  H  H535  1  0.62160179  0.36190476  0.17580074  1
  C  C536  1  0.59454561  0.34842971  0.18494846  1
  C  C537  1  0.52339004  0.38404351  0.11102361  1
  C  C538  1  0.52551813  0.31098094  0.21552775  1
  C  C539  1  0.51956881  0.40835784  0.07653953  1
  C  C540  1  0.59319537  0.32414544  0.21818966  1
  O  O541  1  0.65990050  0.33902560  0.23121537  1
  C  C542  1  0.56029064  0.30303769  0.23395479  1
  C  C543  1  0.63251317  0.31538026  0.23961233  1
  O  O544  1  0.74580782  0.32508555  0.19467233  1
  Zn  Zn545  1  0.99860879  0.49768310  0.07771317  1
  O  O546  1  0.75544833  0.25904524  0.19202668  1
  C  C547  1  0.93802942  0.38726471  0.04722018  1
  O  O548  1  0.97666749  0.44311985  0.07841827  1
  C  C549  1  0.79598132  0.25891760  0.12564791  1
  C  C550  1  0.82474853  0.29777929  0.07014094  1
  N  N551  1  0.85079322  0.30116390  0.03709037  1
  H  H552  1  0.78654356  0.25446943  0.02002895  1
  C  C553  1  0.90430773  0.33608779  0.00391736  1
  C  C554  1  0.78974645  0.33525883  0.12075823  1
  H  H555  1  0.81520074  0.36375757  0.06696508  1
  C  C556  1  0.80970711  0.33501319  0.08450486  1
  H  H557  1  0.77807634  0.36498169  0.13508680  1
  H  H558  1  0.92163677  0.39747156  0.11063653  1
  C  C559  1  0.93139793  0.36604562  0.00983725  1
  C  C560  1  0.91668218  0.37769261  0.08297528  1
  C  C561  1  0.88107934  0.32957646  0.04079953  1
  C  C562  1  0.81870465  0.25901671  0.08982934  1
  C  C563  1  0.88692207  0.34830958  0.07984301  1
  H  H564  1  0.86961316  0.33883776  0.10732377  1
  C  C565  1  0.76030157  0.29408176  0.17848907  1
  C  C566  1  0.78335979  0.29773527  0.13925850  1
  C  C567  1  0.96938212  0.42007348  0.04817769  1
  O  O568  1  0.98840827  0.42440120  0.01602001  1
  C  C569  1  0.64596012  0.18886254  0.47183996  1
  C  C570  1  0.65826061  0.21219613  0.43878615  1
  H  H571  1  0.63460025  0.21390937  0.41489554  1
  O  O572  1  0.67859379  0.19006971  0.29809411  1
  O  O573  1  0.61210707  0.16686298  0.47643139  1
  C  C574  1  0.69386502  0.23346659  0.43264610  1
  C  C575  1  0.70442561  0.17622642  0.27512296  1
  O  O576  1  0.73924214  0.19029689  0.27564610  1
  C  C577  1  0.72465360  0.23132275  0.46193700  1
  H  H578  1  0.63414946  0.14085417  0.26812589  1
  C  C579  1  0.71446031  0.20996862  0.49611674  1
  O  O580  1  0.50156876  0.07123068  0.45241302  1
  Zn  Zn581  1  0.50034705  0.02702230  0.49868134  1
  C  C582  1  0.98275911  0.16088795  0.36571140  1
  H  H583  1  0.91917178  0.15874411  0.36008153  1
  C  C584  1  0.93727821  0.21578241  0.28739082  1
  C  C585  1  0.94454966  0.14783186  0.37897368  1
  C  C586  1  0.94132054  0.12087816  0.41027564  1
  H  H587  1  0.91272685  0.11263981  0.42382314  1
  H  H588  1  0.95140985  0.19631706  0.26596454  1
  C  C589  1  0.89942948  0.23048882  0.28154503  1
  C  C590  1  0.95165177  0.21527733  0.32770796  1
  C  C591  1  0.97572340  0.08217902  0.46499389  1
  C  C592  1  0.97638626  0.10645224  0.42819706  1
  O  O593  1  0.94292931  0.07086783  0.48077754  1
  N  N594  1  0.98673678  0.19261123  0.33845850  1
  C  C595  1  0.87671125  0.24896893  0.31115160  1
  C  C596  1  0.92581303  0.22911168  0.35899324  1
  H  H597  1  0.93704097  0.22237324  0.39058929  1
  H  H598  1  0.99771187  0.24887255  0.27921473  1
  Zn  Zn599  1  0.76276867  0.24731527  0.26030303  1
  H  H600  1  0.89001807  0.22520127  0.25166270  1
  H  H601  1  0.75380463  0.24366826  0.45813449  1
  C  C602  1  0.89039486  0.24913987  0.35174473  1
  C  C603  1  0.70197497  0.25611189  0.39557921  1
  O  O604  1  0.67659583  0.25983843  0.36897495  1
  Zn  Zn605  1  0.68033105  0.25990775  0.30453875  1
  O  O606  1  0.63448271  0.28754018  0.26456603  1
  O  O607  1  0.73008561  0.28764770  0.28833925  1
  Zn  Zn608  1  0.71694935  0.33719230  0.25241556  1
  O  O609  1  0.73196585  0.38841178  0.29127358  1
  O  O610  1  0.73748944  0.26847494  0.39004098  1
  H  H611  1  0.56350942  0.28278901  0.26142718  1
  H  H612  1  0.72834234  0.47025144  0.29029717  1
  C  C613  1  0.74960386  0.47314266  0.31465644  1
  C  C614  1  0.74895495  0.39623776  0.32387943  1
  Zn  Zn615  1  0.75870028  0.30501074  0.33967748  1
  C  C616  1  0.79930525  0.48026341  0.38406385  1
  O  O617  1  0.82282348  0.25781088  0.26870977  1
  C  C618  1  0.83522685  0.26213136  0.30371995  1
  H  H619  1  0.87040259  0.25623964  0.37694475  1
  C  C620  1  0.76134130  0.43844593  0.33650420  1
  O  O621  1  0.76101532  0.36919035  0.34724820  1
  O  O622  1  0.81414753  0.27647724  0.33194268  1
  H  H623  1  0.79389688  0.41567063  0.38598272  1
  C  C624  1  0.78420118  0.44253799  0.37132817  1
  O  O625  1  0.82433207  0.48081148  0.41769661  1
  O  O626  1  0.92362411  0.44858337  0.49818563  1
  H  H627  1  0.59873783  0.07877073  0.61366183  1
  C  C628  1  0.63263107  0.12539774  0.58290650  1
  C  C629  1  0.60087813  0.09905715  0.58655578  1
  C  C630  1  0.63935486  0.14352490  0.54348525  1
  N  N631  1  0.67410354  0.16492722  0.53635202  1
  H  H632  1  0.65371584  0.12538012  0.60798539  1
  C  C633  1  0.57150296  0.09707176  0.55637777  1
  C  C634  1  0.70230701  0.16490745  0.56761622  1
  C  C635  1  0.70840097  0.20417883  0.58707386  1
  C  C636  1  0.53525566  0.07544951  0.56521979  1
  C  C637  1  0.72220533  0.12981824  0.58315269  1
  O  O638  1  0.53087669  0.05676956  0.59818711  1
  C  C639  1  0.57821517  0.12044786  0.52134872  1
  C  C640  1  0.72951424  0.20922020  0.62180869  1
  H  H641  1  0.72631720  0.10134602  0.56569891  1
  C  C642  1  0.74178237  0.13403147  0.62022561  1
  C  C643  1  0.61046382  0.14379775  0.51066657  1
  H  H644  1  0.73637530  0.20612511  0.52044623  1
  H  H645  1  0.69361764  0.22986819  0.57264281  1
  C  C646  1  0.74623661  0.17323524  0.63790673  1
  H  H647  1  0.73043391  0.23847786  0.63710562  1
  O  O648  1  0.50787649  0.07649968  0.54017332  1
  Zn  Zn649  1  0.50143488  0.00174317  0.58384334  1
  Zn  Zn650  1  0.74564100  0.23000459  0.74979208  1
  H  H651  1  0.55227758  0.12009351  0.50007844  1
  C  C652  1  0.67851755  0.18752622  0.50058335  1
  H  H653  1  0.75439938  0.10880336  0.63409847  1
  O  O654  1  0.77058259  0.21273994  0.69253227  1
  C  C655  1  0.76507199  0.17677994  0.67884063  1
  O  O656  1  0.77748870  0.14654963  0.69737922  1
  Zn  Zn657  1  0.93502577  0.01823124  0.51163668  1
  H  H658  1  0.74091897  0.35246508  0.71224117  1
  Zn  Zn659  1  0.96457929  0.49555394  0.51615826  1
  H  H660  1  0.87837259  0.48392513  0.53437090  1
  C  C661  1  0.80233477  0.34623403  0.72432886  1
  C  C662  1  0.84151910  0.36004908  0.72172863  1
  C  C663  1  0.87120269  0.46107665  0.55952255  1
  N  N664  1  0.82181601  0.44569319  0.65500764  1
  C  C665  1  0.84447471  0.43767632  0.62020694  1
  H  H666  1  0.85283644  0.37326490  0.63803794  1
  H  H667  1  0.75013501  0.42328363  0.67527370  1
  C  C668  1  0.84782885  0.47266915  0.59255395  1
  C  C669  1  0.84697679  0.39451786  0.69978108  1
  H  H670  1  0.78896095  0.46182340  0.72255950  1
  C  C671  1  0.88283212  0.38857866  0.58060163  1
  O  O672  1  0.93866519  0.38729244  0.51977183  1
  C  C673  1  0.91724034  0.41736283  0.52020420  1
  C  C674  1  0.77317360  0.40211735  0.68716463  1
  C  C675  1  0.88840623  0.42173927  0.55550895  1
  C  C676  1  0.78854592  0.48773067  0.70206511  1
  C  C677  1  0.80603808  0.48303389  0.66248420  1
  C  C678  1  0.76906614  0.36622257  0.70931945  1
  C  C679  1  0.86029730  0.39789022  0.61602483  1
  H  H680  1  0.89655528  0.35761540  0.57548449  1
  H  H681  1  0.87558346  0.40855813  0.69670313  1
  C  C682  1  0.81375455  0.41339355  0.68282528  1
  H  H683  1  0.86457799  0.34205696  0.73601890  1
  C  C684  1  0.79753369  0.30722223  0.74687394  1
  C  C685  1  0.70792726  0.01822956  0.89378926  1
  O  O686  1  0.68675943  0.01971904  0.92968954  1
  O  O687  1  0.69262766  0.20324641  0.83487205  1
  H  H688  1  0.72340821  0.08206684  0.89296869  1
  C  C689  1  0.72593622  0.05207735  0.87755336  1
  O  O690  1  0.68748218  0.21933234  0.77147382  1
  C  C691  1  0.67748726  0.22418557  0.80753297  1
  H  H692  1  0.64563241  0.24124245  0.87942155  1
  C  C693  1  0.74618800  0.05193282  0.83970913  1
  H  H694  1  0.62905366  0.00725563  0.98272704  1
  O  O695  1  0.50041521  0.00214416  0.95782299  1
  C  C696  1  0.75229072  0.01571109  0.81772900  1
  O  O697  1  0.75492731  0.12152150  0.84896823  1
  C  C698  1  0.76138214  0.09159432  0.82606028  1
  H  H699  1  0.76759225  0.01690776  0.78825282  1
  Zn  Zn700  1  0.75101060  0.18295383  0.83184851  1
  O  O701  1  0.77868262  0.09502572  0.79173454  1
  O  O702  1  0.78262218  0.20087334  0.78354966  1
  O  O703  1  0.78551397  0.20375813  0.88625233  1
  H  H704  1  0.77202715  0.22146097  0.95352677  1
  C  C705  1  0.81717932  0.22430370  0.88701183  1
  O  O706  1  0.84056315  0.22558832  0.85828376  1
  Zn  Zn707  1  0.82192739  0.23982537  0.79983827  1
  Zn  Zn708  1  0.79629000  0.14933909  0.75989091  1
  C  C709  1  0.79793494  0.23995021  0.95856149  1
  C  C710  1  0.82391412  0.24531501  0.92623126  1
  C  C711  1  0.64634342  0.25687948  0.81509708  1
  C  C712  1  0.63523399  0.26204561  0.85663818  1
  H  H713  1  0.54403538  0.27427259  0.79694029  1
  H  H714  1  0.59556633  0.29758797  0.89667499  1
  C  C715  1  0.60838657  0.29299338  0.86479542  1
  C  C716  1  0.62991317  0.27890111  0.78317309  1
  C  C717  1  0.53302501  0.40391884  0.86802671  1
  C  C718  1  0.59076270  0.31509242  0.83137296  1
  C  C719  1  0.60104330  0.30709900  0.79085240  1
  H  H720  1  0.62754002  0.36288559  0.87359894  1
  C  C721  1  0.61173838  0.42269953  0.89775382  1
  C  C722  1  0.60466194  0.38561342  0.87922313  1
  N  N723  1  0.55905041  0.34191335  0.83954279  1
  C  C724  1  0.56676925  0.37692823  0.86260118  1
  C  C725  1  0.58077815  0.44914319  0.90379912  1
  H  H726  1  0.64213014  0.42961852  0.91011546  1
  C  C727  1  0.54248064  0.43931129  0.88957702  1
  C  C728  1  0.52343328  0.33362723  0.82087941  1
  H  H729  1  0.52009774  0.46247698  0.89633841  1
  C  C730  1  0.58616001  0.49017165  0.92388858  1
  C  C731  1  0.51958540  0.29616616  0.79945413  1
  H  H732  1  0.58355347  0.31975115  0.76558446  1
  O  O733  1  0.61926011  0.49716654  0.93656434  1
  H  H734  1  0.63702547  0.26801709  0.75146766  1
  C  C735  1  0.80577720  0.25932119  0.99432638  1
  H  H736  1  0.95129018  0.37336130  0.98656454  1
  O  O737  1  0.82767241  0.28802050  0.76024766  1
  O  O738  1  0.89988612  0.31347526  0.96857207  1
  H  H739  1  0.87630130  0.27538899  0.90340717  1
  C  C740  1  0.85707636  0.26955529  0.93056601  1
  O  O741  1  0.76295054  0.29358526  0.75380593  1
  C  C742  1  0.86711936  0.29054900  0.96668763  1
  C  C743  1  0.84018662  0.28374581  0.99941962  1
  C  C744  1  0.52909549  0.68441087  0.18859948  1
  H  H745  1  0.52898625  0.66923337  0.09430711  1
  H  H746  1  0.52780755  0.61857099  0.03906603  1
  C  C747  1  0.56591734  0.69999970  0.19888523  1
  C  C748  1  0.58151010  0.73248727  0.17556548  1
  C  C749  1  0.50686654  0.70306262  0.15684515  1
  C  C750  1  0.52503875  0.73259066  0.13105201  1
  C  C751  1  0.56174664  0.74752250  0.14152876  1
  O  O752  1  0.63268784  0.73697955  0.22051881  1
  C  C753  1  0.50120640  0.65354069  0.08854201  1
  C  C754  1  0.50083611  0.62715775  0.05646390  1
  H  H755  1  0.50774282  0.74268049  0.10479837  1
  H  H756  1  0.51471693  0.66330144  0.20939550  1
  H  H757  1  0.58616271  0.68479362  0.22153609  1
  C  C758  1  0.74600626  0.71659458  0.04920619  1
  H  H759  1  0.71823524  0.73538999  0.04426612  1
  O  O760  1  0.75832951  0.68440902  0.24086109  1
  C  C761  1  0.75961734  0.68772712  0.02120922  1
  C  C762  1  0.76762386  0.72013355  0.08665651  1
  H  H763  1  0.81490716  0.69968915  0.12538584  1
  C  C764  1  0.79975184  0.69491335  0.09542894  1
  C  C765  1  0.81468769  0.66564703  0.06890564  1
  O  O766  1  0.84738360  0.64419768  0.07775293  1
  H  H767  1  0.90543079  0.59205098  0.08221048  1
  C  C768  1  0.89035660  0.59045392  0.05343608  1
  C  C769  1  0.79235918  0.66366816  0.03081062  1
  C  C770  1  0.86018047  0.61805480  0.04868085  1
  C  C771  1  0.93628067  0.53773505  0.02323724  1
  C  C772  1  0.90351245  0.56607125  0.02090723  1
  O  O773  1  0.95138075  0.53492107  0.05904707  1
  Zn  Zn774  1  0.76536479  0.74429618  0.21012501  1
  C  C775  1  0.84235292  0.61464779  0.00786224  1
  N  N776  1  0.81137499  0.63973981  0.00058189  1
  C  C777  1  0.61903453  0.75215117  0.18810132  1
  O  O778  1  0.56569918  0.90975099  0.00843850  1
  H  H779  1  0.57542729  0.77276834  0.12577812  1
  Zn  Zn780  1  0.69830914  0.79802073  0.16779781  1
  O  O781  1  0.72887635  0.77365276  0.11380764  1
  C  C782  1  0.71102893  0.88982061  0.18244913  1
  C  C783  1  0.71570888  0.96366925  0.20863344  1
  O  O784  1  0.71959235  0.77829263  0.21837400  1
  O  O785  1  0.64607388  0.99201344  0.10169755  1
  O  O786  1  0.63552998  0.77854611  0.16655980  1
  O  O787  1  0.57848872  0.97226003  0.02704233  1
  Zn  Zn788  1  0.50455827  0.92226009  0.01992294  1
  O  O789  1  0.72634418  0.88027176  0.21635358  1
  H  H790  1  0.67303876  0.91527767  0.12846300  1
  C  C791  1  0.66753265  0.98208802  0.13490589  1
  C  C792  1  0.70250436  0.93436649  0.18026392  1
  C  C793  1  0.68028060  0.94363130  0.14605610  1
  O  O794  1  0.69998680  0.86390745  0.15732318  1
  H  H795  1  0.73471176  0.95531207  0.23468392  1
  C  C796  1  0.58747759  0.94128017  0.00591404  1
  Zn  Zn797  1  0.73528659  0.82735733  0.24983130  1
  C  C798  1  0.75923561  0.75256775  0.11735329  1
  O  O799  1  0.77935131  0.75709160  0.14825346  1
  O  O800  1  0.82150401  0.77196983  0.22308001  1
  H  H801  1  0.89789338  0.76646057  0.23487390  1
  H  H802  1  0.72544141  0.66547846  0.35377606  1
  O  O803  1  0.71046839  0.69410478  0.28399231  1
  Zn  Zn804  1  0.68371719  0.74899057  0.25528633  1
  C  C805  1  0.74198085  0.67797991  0.27363177  1
  H  H806  1  0.66962628  0.74955249  0.38595287  1
  C  C807  1  0.75014339  0.64713279  0.34276538  1
  C  C808  1  0.76263362  0.64848093  0.30227425  1
  H  H809  1  0.75138171  0.53878599  0.31014120  1
  H  H810  1  0.75516786  0.61104516  0.39762876  1
  H  H811  1  0.86667259  0.50060186  0.48000270  1
  C  C812  1  0.76536813  0.61743276  0.36684455  1
  C  C813  1  0.83686641  0.51851452  0.42640344  1
  C  C814  1  0.86067803  0.52501548  0.46028328  1
  C  C815  1  0.79190785  0.58915118  0.35009477  1
  C  C816  1  0.81070965  0.59519454  0.31149021  1
  C  C817  1  0.86741649  0.59995420  0.44685264  1
  C  C818  1  0.84128713  0.59640809  0.41429176  1
  H  H819  1  0.83309942  0.62351390  0.39602370  1
  C  C820  1  0.82577400  0.55681023  0.40663304  1
  H  H821  1  0.88348164  0.62752075  0.45680721  1
  N  N822  1  0.79966634  0.55372014  0.37416803  1
  C  C823  1  0.87711938  0.56374954  0.46698989  1
  H  H824  1  0.83236790  0.57191231  0.30266950  1
  C  C825  1  0.79182794  0.62370523  0.28654240  1
  C  C826  1  0.78564456  0.51516694  0.36252133  1
  C  C827  1  0.76057562  0.51140844  0.32685905  1
  H  H828  1  0.80336709  0.63218789  0.25760886  1
  H  H829  1  0.64717123  0.76512154  0.45792538  1
  O  O830  1  0.68560004  0.77426465  0.31561981  1
  C  C831  1  0.67457974  0.78077040  0.39888834  1
  C  C832  1  0.69428620  0.80860214  0.33133868  1
  C  C833  1  0.66583081  0.78785832  0.44007417  1
  C  C834  1  0.69000502  0.81324096  0.37690802  1
  H  H835  1  0.57968769  0.93134910  0.45413523  1
  C  C836  1  0.67645671  0.82635618  0.45747984  1
  H  H837  1  0.62747029  0.87204729  0.44396600  1
  C  C838  1  0.61975284  0.88407140  0.47489200  1
  C  C839  1  0.68920658  0.85932853  0.43294418  1
  C  C840  1  0.69772843  0.85260685  0.39237223  1
  O  O841  1  0.70581436  0.83689867  0.30856494  1
  C  C842  1  0.59339108  0.91402566  0.47888132  1
  H  H843  1  0.69414283  0.89013411  0.44816717  1
  H  H844  1  0.70559373  0.87750916  0.37238369  1
  H  H845  1  0.71759221  0.76991463  0.48928800  1
  N  N846  1  0.66587927  0.83310386  0.49884966  1
  O  O847  1  0.54148257  0.97751370  0.49611069  1
  C  C848  1  0.96713175  0.86649999  0.36015103  1
  C  C849  1  0.93007918  0.79636059  0.28300385  1
  O  O850  1  0.94093033  0.97256217  0.46356969  1
  C  C851  1  0.86183345  0.80197967  0.27429277  1
  C  C852  1  0.96990289  0.92136195  0.42272909  1
  O  O853  1  0.79236194  0.80487393  0.27247090  1
  H  H854  1  0.90487856  0.92221268  0.42043223  1
  C  C855  1  0.82279226  0.79226365  0.25506498  1
  C  C856  1  0.93303114  0.91088542  0.40618508  1
  C  C857  1  0.92982832  0.88434106  0.37247586  1
  C  C858  1  0.93159340  0.82148308  0.31823131  1
  H  H859  1  0.95918287  0.78662461  0.27101974  1
  C  C860  1  0.89569778  0.84405205  0.32927708  1
  C  C861  1  0.97125321  0.95289751  0.45554858  1
  N  N862  1  0.96825745  0.83253644  0.33507405  1
  H  H863  1  0.83670830  0.84460650  0.31884540  1
  C  C864  1  0.86309260  0.82965651  0.30654862  1
  O  O865  1  0.89442526  0.87307729  0.35540609  1
  C  C866  1  0.89734175  0.78612657  0.26017302  1
  Zn  Zn867  1  0.69810863  0.73327908  0.72086073  1
  O  O868  1  0.74238687  0.70134538  0.72972441  1
  O  O869  1  0.63982782  0.71064691  0.71598676  1
  H  H870  1  0.56410932  0.71127580  0.70587438  1
  O  O871  1  0.74617271  0.59941657  0.72964733  1
  C  C872  1  0.55733315  0.68670298  0.72813595  1
  C  C873  1  0.63039517  0.68120793  0.73641726  1
  C  C874  1  0.73212118  0.74636384  0.62880428  1
  H  H875  1  0.74118814  0.72609442  0.54611959  1
  C  C876  1  0.58912178  0.66685427  0.74488399  1
  C  C877  1  0.51872590  0.67422465  0.73586955  1
  O  O878  1  0.76069558  0.72251900  0.62768605  1
  C  C879  1  0.76252098  0.59747580  0.69581751  1
  O  O880  1  0.76621726  0.62754171  0.67324587  1
  Zn  Zn881  1  0.77743566  0.69035052  0.68010147  1
  C  C882  1  0.77136474  0.52441492  0.71015090  1
  C  C883  1  0.77494208  0.55641024  0.68175931  1
  H  H884  1  0.79048172  0.57566402  0.62332568  1
  C  C885  1  0.79146262  0.55069261  0.64362664  1
  C  C886  1  0.80893398  0.51458947  0.63131192  1
  O  O887  1  0.83802885  0.71867499  0.68498474  1
  O  O888  1  0.82877401  0.50807438  0.59597975  1
  O  O889  1  0.91387509  0.52927123  0.51717190  1
  C  C890  1  0.85075301  0.74291437  0.71152055  1
  O  O891  1  0.83750598  0.74265100  0.74627813  1
  H  H892  1  0.75666591  0.53198889  0.73906561  1
  H  H893  1  0.88497051  0.74659473  0.64253241  1
  C  C894  1  0.90715355  0.56496104  0.50172735  1
  O  O895  1  0.92623833  0.59344437  0.51202179  1
  C  C896  1  0.72295835  0.75471342  0.55213495  1
  C  C897  1  0.71786268  0.76847318  0.59217482  1
  O  O898  1  0.71902950  0.75731183  0.66331958  1
  C  C899  1  0.70798613  0.77674659  0.52025116  1
  H  H900  1  0.68783387  0.81033952  0.63311667  1
  C  C901  1  0.69357118  0.80120379  0.60073883  1
  C  C902  1  0.67577666  0.82530909  0.57064969  1
  O  O903  1  0.64966262  0.85482990  0.58098323  1
  H  H904  1  0.59498568  0.91323807  0.58161310  1
  C  C905  1  0.63255614  0.87431867  0.54997300  1
  C  C906  1  0.68544756  0.81187604  0.53058403  1
  C  C907  1  0.60367479  0.90406504  0.55198107  1
  C  C908  1  0.55642470  0.95831444  0.52582872  1
  C  C909  1  0.58462082  0.92507919  0.52082962  1
  O  O910  1  0.54730296  0.96466511  0.56273795  1
  C  C911  1  0.64111990  0.86395497  0.50800041  1
  O  O912  1  0.99997559  0.99947790  0.56613583  1
  C  C913  1  0.94159225  0.88567817  0.63274190  1
  C  C914  1  0.93219757  0.82143130  0.72027502  1
  C  C915  1  0.93278604  0.78914567  0.65004953  1
  C  C916  1  0.89937736  0.79892317  0.73061997  1
  C  C917  1  0.88563835  0.77005451  0.70186045  1
  C  C918  1  0.90103103  0.76626842  0.66286567  1
  H  H919  1  0.94511192  0.78401025  0.61779521  1
  C  C920  1  0.98013215  0.87488316  0.64693590  1
  H  H921  1  0.90862535  0.92740541  0.59395098  1
  H  H922  1  0.91438657  0.86921756  0.64014448  1
  O  O923  1  0.93787464  0.99109873  0.56455953  1
  C  C924  1  0.94775410  0.81672371  0.67981666  1
  C  C925  1  0.97047700  0.98030733  0.57628067  1
  N  N926  1  0.98106969  0.84093238  0.67123678  1
  H  H927  1  0.94576357  0.84424616  0.74033966  1
  C  C928  1  0.97214052  0.94094812  0.59951227  1
  C  C929  1  0.93836484  0.91904817  0.60715319  1
  H  H930  1  0.99260401  0.77445422  0.72119313  1
  C  C931  1  0.54578785  0.61893407  0.78483689  1
  C  C932  1  0.58151097  0.63465700  0.77234434  1
  O  O933  1  0.53995774  0.59051060  0.81276386  1
  H  H934  1  0.60778273  0.62363299  0.78789252  1
  C  C935  1  0.51450047  0.64195758  0.76369846  1
  H  H936  1  0.51367586  0.53593281  0.86298913  1
  Zn  Zn937  1  0.72068738  0.65396136  0.75492137  1
  H  H938  1  0.72087265  0.62454736  0.89400447  1
  O  O939  1  0.73502552  0.64765901  0.82001748  1
  O  O940  1  0.65577881  0.66244530  0.75860440  1
  C  C941  1  0.50179608  0.58446135  0.82561626  1
  O  O942  1  0.55717227  0.51438462  0.92640297  1
  Zn  Zn943  1  0.50960312  0.50735363  0.96816978  1
  H  H944  1  0.73919945  0.61579481  0.96495339  1
  C  C945  1  0.74880764  0.63565369  0.90615369  1
  H  H946  1  0.74575669  0.68391707  0.99123324  1
  C  C947  1  0.76621373  0.66202162  0.83568335  1
  O  O948  1  0.78971638  0.67961080  0.81310353  1
  C  C949  1  0.76065717  0.63088802  0.94571285  1
  C  C950  1  0.77556288  0.65630402  0.87942919  1
  H  H951  1  0.83301330  0.68579973  0.87147506  1
  H  H952  1  0.85342442  0.67767524  0.94246240  1
  C  C953  1  0.79729909  0.64519074  0.96056492  1
  H  H954  1  0.84035177  0.59049958  0.94596714  1
  C  C955  1  0.85623654  0.58992558  0.97448858  1
  C  C956  1  0.82315693  0.66709200  0.93335393  1
  C  C957  1  0.81133796  0.67171864  0.89375822  1
  H  H958  1  0.89912748  0.54627271  0.95522241  1
  C  C959  1  0.88742225  0.56443823  0.98102086  1
  Zn  Zn960  1  0.77741581  0.72971516  0.76871143  1
  O  O961  1  0.95107152  0.51680442  0.99459785  1
  O  O962  1  0.74716942  0.77676147  0.79838653  1
  H  H963  1  0.73164184  0.95243952  0.81060286  1
  C  C964  1  0.73233147  0.98137591  0.82915881  1
  C  C965  1  0.73598379  0.84554417  0.84887503  1
  H  H966  1  0.66424623  0.85641361  0.77907377  1
  C  C967  1  0.66609563  0.98363998  0.93674012  1
  C  C968  1  0.71137430  0.98314650  0.86640790  1
  C  C969  1  0.62275860  0.90624652  0.95037357  1
  C  C970  1  0.63899560  0.97975193  0.96615834  1
  H  H971  1  0.60662139  0.87719946  0.95629234  1
  C  C972  1  0.65041984  0.90751547  0.91984274  1
  C  C973  1  0.68298909  0.86329567  0.80393437  1
  C  C974  1  0.67059355  0.94569062  0.91356285  1
  H  H975  1  0.65728837  0.92369399  0.81286259  1
  H  H976  1  0.65476912  0.87855712  0.90245069  1
  N  N977  1  0.69525896  0.94643490  0.88037809  1
  C  C978  1  0.67834453  0.90066322  0.82450243  1
  C  C979  1  0.71230255  0.83572307  0.81567048  1
  C  C980  1  0.70198336  0.90942542  0.85860301  1
  C  C981  1  0.61878251  0.94205520  0.97519051  1
  C  C982  1  0.71831870  0.79791145  0.78956953  1
  C  C983  1  0.73270342  0.88209069  0.86982907  1
  O  O984  1  0.69604969  0.79001876  0.76174559  1
  H  H985  1  0.88651984  0.80218934  0.76002054  1
  H  H986  1  0.75950436  0.82556148  0.85704384  1
  H  H987  1  0.75388241  0.88954749  0.89394393  1
