# generated using pymatgen
data_Zn8Cu3H60C126(N3O22)2
_symmetry_space_group_name_H-M   'P 1'
_cell_length_a   33.62588558
_cell_length_b   34.15148493
_cell_length_c   33.55367563
_cell_angle_alpha   90.00000000
_cell_angle_beta   90.00000000
_cell_angle_gamma   90.00000000
_symmetry_Int_Tables_number   1
_chemical_formula_structural   Zn8Cu3H60C126(N3O22)2
_chemical_formula_sum   'Zn32 Cu12 H240 C504 N24 O176'
_cell_volume   38532.16616644
_cell_formula_units_Z   4
loop_
 _symmetry_equiv_pos_site_id
 _symmetry_equiv_pos_as_xyz
  1  'x, y, z'
loop_
 _atom_site_type_symbol
 _atom_site_label
 _atom_site_symmetry_multiplicity
 _atom_site_fract_x
 _atom_site_fract_y
 _atom_site_fract_z
 _atom_site_occupancy
  H  H0  1  0.14280014  0.20382236  0.22664120  1
  O  O1  1  0.19906855  0.24460721  0.23980202  1
  H  H2  1  0.24206313  0.24848493  0.10608076  1
  H  H3  1  0.08323641  0.16425027  0.24904201  1
  H  H4  1  0.26838423  0.11298281  0.17757458  1
  H  H5  1  0.27553724  0.04362557  0.15927759  1
  Zn  Zn6  1  0.26308875  0.23353088  0.22347320  1
  H  H7  1  0.36420234  0.05605868  0.15496051  1
  H  H8  1  0.41462878  0.05902024  0.09884599  1
  C  C9  1  0.29475758  0.05653372  0.18286162  1
  C  C10  1  0.29131263  0.09624049  0.19304367  1
  C  C11  1  0.37716998  0.03011523  0.14144610  1
  C  C12  1  0.40599983  0.03092939  0.11156712  1
  C  C13  1  0.32347180  0.03292495  0.20045938  1
  C  C14  1  0.31607859  0.11223281  0.22175539  1
  O  O15  1  0.28649806  0.17322138  0.20894957  1
  C  C16  1  0.31286205  0.15633785  0.22635980  1
  O  O17  1  0.46073924  0.02277477  0.04900651  1
  C  C18  1  0.34679300  0.05077747  0.23253149  1
  C  C19  1  0.34281707  0.08884577  0.24416473  1
  H  H20  1  0.36702968  0.03157703  0.24884856  1
  O  O21  1  0.33962468  0.17355542  0.24665998  1
  H  H22  1  0.46472991  0.23370469  0.23409163  1
  Cu  Cu23  1  0.00205245  0.49773137  0.03606920  1
  H  H24  1  0.19142916  0.26933965  0.04802979  1
  H  H25  1  0.10914280  0.41913190  0.11448304  1
  C  C26  1  0.11377389  0.40724912  0.08385377  1
  C  C27  1  0.14002688  0.37697652  0.07425575  1
  C  C28  1  0.06437991  0.45397935  0.06604325  1
  C  C29  1  0.08976030  0.42132459  0.05277641  1
  H  H30  1  0.15548210  0.36445650  0.09831701  1
  C  C31  1  0.14795054  0.36722739  0.03342552  1
  N  N32  1  0.17948113  0.34238062  0.02632657  1
  O  O33  1  0.04643680  0.47237936  0.03453690  1
  O  O34  1  0.06152954  0.46630218  0.09906011  1
  C  C35  1  0.21066855  0.28888413  0.06610756  1
  C  C36  1  0.20085976  0.32862789  0.05937252  1
  C  C37  1  0.09601961  0.41093644  0.01161958  1
  C  C38  1  0.23394680  0.27842898  0.09815685  1
  C  C39  1  0.21788907  0.35784035  0.08551488  1
  H  H40  1  0.21391252  0.38859235  0.07733415  1
  H  H41  1  0.23935895  0.30243457  0.00599694  1
  C  C42  1  0.24890070  0.30819716  0.12384058  1
  C  C43  1  0.24079995  0.34777217  0.11759773  1
  C  C44  1  0.12395025  0.38385832  0.00110445  1
  O  O45  1  0.27976450  0.26115430  0.16696813  1
  C  C46  1  0.46899908  0.26040558  0.21929922  1
  Zn  Zn47  1  0.31337039  0.30871315  0.24080601  1
  O  O48  1  0.48937950  0.37358187  0.16121125  1
  C  C49  1  0.48199887  0.34005507  0.18453291  1
  H  H50  1  0.25506268  0.37046045  0.13552129  1
  C  C51  1  0.44773903  0.32877388  0.20256024  1
  O  O52  1  0.28586979  0.32143291  0.18383966  1
  C  C53  1  0.40306188  0.28905395  0.24170864  1
  O  O54  1  0.37740099  0.31520113  0.23967359  1
  C  C55  1  0.27440563  0.29674086  0.15894648  1
  Cu  Cu56  1  0.46754204  0.48334201  0.01793371  1
  C  C57  1  0.44255459  0.29184830  0.22200222  1
  H  H58  1  0.42095718  0.34831098  0.20066899  1
  N  N59  1  0.05388346  0.16711762  0.32379192  1
  C  C60  1  0.10200389  0.12893009  0.36075193  1
  C  C61  1  0.11053620  0.09922337  0.38866576  1
  H  H62  1  0.12490296  0.14529046  0.34549170  1
  C  C63  1  0.06204115  0.13774536  0.35223490  1
  C  C64  1  0.07880830  0.07896242  0.40634400  1
  C  C65  1  0.04005520  0.08656914  0.39337074  1
  C  C66  1  0.02760664  0.11517249  0.36614970  1
  C  C67  1  0.08627517  0.19017433  0.30854771  1
  H  H68  1  0.14013279  0.09294921  0.39941329  1
  C  C69  1  0.10269749  0.21599487  0.33848646  1
  H  H70  1  0.09123352  0.21967882  0.36925811  1
  H  H71  1  0.01615205  0.06861992  0.40633236  1
  C  C72  1  0.13691563  0.23387242  0.32595413  1
  C  C73  1  0.15027786  0.22916522  0.28630160  1
  C  C74  1  0.01676250  0.17735755  0.31247465  1
  C  C75  1  0.09714288  0.18633557  0.26843380  1
  C  C76  1  0.08775010  0.04596638  0.43686300  1
  O  O77  1  0.11943124  0.03854860  0.45099524  1
  O  O78  1  0.05690424  0.02642001  0.44896206  1
  C  C79  1  0.01129748  0.20922732  0.28318361  1
  C  C80  1  0.13133722  0.20746532  0.25686422  1
  H  H81  1  0.03819600  0.22759721  0.27545895  1
  H  H82  1  0.22873330  0.23648959  0.36213798  1
  C  C83  1  0.23988872  0.24144595  0.39305667  1
  O  O84  1  0.29514032  0.21737539  0.33405632  1
  O  O85  1  0.33804485  0.20278976  0.37975216  1
  C  C86  1  0.30594568  0.21500959  0.37111723  1
  Zn  Zn87  1  0.34346709  0.22708453  0.28655858  1
  H  H88  1  0.32315008  0.21546611  0.45052178  1
  C  C89  1  0.27726384  0.22889767  0.40444063  1
  C  C90  1  0.29293665  0.22943834  0.44420027  1
  C  C91  1  0.26921059  0.24624273  0.47341415  1
  H  H92  1  0.35742861  0.09908933  0.27210120  1
  C  C93  1  0.18756530  0.25012193  0.27464213  1
  H  H94  1  0.23403803  0.49326475  0.28473889  1
  H  H95  1  0.15488973  0.25201545  0.34515410  1
  O  O96  1  0.20540730  0.27064222  0.30035568  1
  C  C97  1  0.23284794  0.26406248  0.46125963  1
  C  C98  1  0.21675779  0.26199539  0.42095175  1
  N  N99  1  0.18604051  0.49615394  0.34622043  1
  C  C100  1  0.17661577  0.30337061  0.48004914  1
  O  O101  1  0.18254639  0.27909465  0.41057507  1
  C  C102  1  0.16230000  0.30020301  0.43914353  1
  H  H103  1  0.11435797  0.31548808  0.39987686  1
  O  O104  1  0.17663072  0.42703171  0.39107454  1
  C  C105  1  0.12347965  0.45849525  0.42514432  1
  C  C106  1  0.20664189  0.46354041  0.33502809  1
  H  H107  1  0.11694281  0.43171508  0.44253540  1
  C  C108  1  0.15327957  0.45905547  0.39595775  1
  C  C109  1  0.20286821  0.42848243  0.35982378  1
  C  C110  1  0.22627856  0.39746053  0.34667842  1
  C  C111  1  0.12634064  0.31861246  0.43160161  1
  O  O112  1  0.05324533  0.34927522  0.41345692  1
  H  H113  1  0.22665373  0.37053991  0.36480425  1
  C  C114  1  0.10304784  0.33646949  0.46052638  1
  C  C115  1  0.06414328  0.35502543  0.44629951  1
  Cu  Cu116  1  0.02108190  0.42082446  0.46865929  1
  O  O117  1  0.04130865  0.37385443  0.47319046  1
  O  O118  1  0.06530302  0.45434691  0.47812793  1
  C  C119  1  0.23318389  0.46571291  0.30128310  1
  C  C120  1  0.15547728  0.49605870  0.37495635  1
  C  C121  1  0.06839907  0.48826844  0.46150957  1
  C  C122  1  0.09873775  0.49127358  0.43086491  1
  N  N123  1  0.21134002  0.28413987  0.49086608  1
  C  C124  1  0.11776485  0.34078549  0.49999794  1
  H  H125  1  0.27283948  0.43148669  0.26106960  1
  O  O126  1  0.29549127  0.25901856  0.26741748  1
  Zn  Zn127  1  0.26619376  0.27305721  0.31706013  1
  O  O128  1  0.27805427  0.33712049  0.32950134  1
  O  O129  1  0.39491413  0.25794606  0.26243133  1
  C  C130  1  0.27689766  0.36360528  0.30436528  1
  C  C131  1  0.25121802  0.39902756  0.31352384  1
  C  C132  1  0.25425603  0.43351274  0.28871827  1
  O  O133  1  0.29821349  0.36272284  0.27358828  1
  O  O134  1  0.07646915  0.14337116  0.63057748  1
  H  H135  1  0.06453872  0.09982178  0.56797287  1
  C  C136  1  0.04102678  0.13428505  0.61509360  1
  C  C137  1  0.03643561  0.10995904  0.58288927  1
  C  C138  1  0.07635733  0.16776975  0.66514838  1
  C  C139  1  0.03994496  0.18125467  0.68336322  1
  H  H140  1  0.13988304  0.16706712  0.67397641  1
  C  C141  1  0.11002560  0.17948673  0.68510267  1
  C  C142  1  0.10929461  0.20437603  0.71896876  1
  C  C143  1  0.03915806  0.20788815  0.71548442  1
  O  O144  1  0.03455543  0.06086444  0.51686447  1
  C  C145  1  0.07404447  0.21600108  0.73759537  1
  O  O146  1  0.17978973  0.20390300  0.71413984  1
  H  H147  1  0.01123221  0.22126555  0.72609665  1
  C  C148  1  0.14974937  0.21418687  0.73500588  1
  C  C149  1  0.00295331  0.14629975  0.63265912  1
  N  N150  1  0.00335848  0.16870592  0.66669929  1
  H  H151  1  0.21584030  0.21599721  0.52944666  1
  Zn  Zn152  1  0.24040128  0.21391703  0.72795673  1
  C  C153  1  0.22536640  0.24151103  0.54773469  1
  C  C154  1  0.24011821  0.23625750  0.58686030  1
  C  C155  1  0.00035890  0.09773300  0.56600360  1
  C  C156  1  0.00157567  0.07127984  0.53251923  1
  H  H157  1  0.24294278  0.20627409  0.59908671  1
  Cu  Cu158  1  0.05140144  0.01089926  0.50040011  1
  O  O159  1  0.26178490  0.22410589  0.66641653  1
  Cu  Cu160  1  0.49879477  0.00112466  0.51252035  1
  H  H161  1  0.27840590  0.24711038  0.50414985  1
  C  C162  1  0.17580919  0.47692155  0.69792593  1
  H  H163  1  0.16502105  0.32296162  0.54089196  1
  H  H164  1  0.09886687  0.35610323  0.52147375  1
  H  H165  1  0.07797509  0.43727012  0.59852710  1
  H  H166  1  0.13227984  0.44238389  0.65110176  1
  C  C167  1  0.09091446  0.46493475  0.60942358  1
  C  C168  1  0.11993282  0.46946073  0.63844990  1
  C  C169  1  0.21776542  0.47164191  0.70289467  1
  C  C170  1  0.23388718  0.43657530  0.71595399  1
  C  C171  1  0.22172371  0.27964610  0.53196366  1
  C  C172  1  0.07354403  0.49906684  0.59215494  1
  H  H173  1  0.23906652  0.49424606  0.68943534  1
  C  C174  1  0.04070943  0.49057787  0.56282963  1
  C  C175  1  0.15193671  0.44597891  0.71280340  1
  C  C176  1  0.23267640  0.31132531  0.55903573  1
  H  H177  1  0.22786673  0.34111243  0.54696102  1
  O  O178  1  0.02635414  0.45951960  0.55874883  1
  C  C179  1  0.21071729  0.40503229  0.72715251  1
  C  C180  1  0.22104830  0.36392535  0.74147285  1
  C  C181  1  0.15345800  0.32298110  0.50984559  1
  C  C182  1  0.24501227  0.30554899  0.59730850  1
  H  H183  1  0.11963251  0.45069076  0.71659236  1
  C  C184  1  0.16904601  0.41151131  0.72541062  1
  C  C185  1  0.24973919  0.26720715  0.61187532  1
  H  H186  1  0.14884397  0.38785415  0.73499593  1
  O  O187  1  0.19361301  0.34005176  0.74875454  1
  Zn  Zn188  1  0.28249361  0.29940890  0.73774812  1
  O  O189  1  0.25585284  0.35469506  0.74602785  1
  C  C190  1  0.26477999  0.25899858  0.65313011  1
  O  O191  1  0.28126693  0.28600539  0.67140050  1
  H  H192  1  0.25366181  0.33018911  0.61616700  1
  H  H193  1  0.26683501  0.43413703  0.71893805  1
  H  H194  1  0.40474717  0.33155157  0.74795060  1
  O  O195  1  0.15074049  0.23533733  0.76472469  1
  H  H196  1  0.07313903  0.23242655  0.76598938  1
  O  O197  1  0.25268783  0.16054069  0.76602120  1
  C  C198  1  0.27934262  0.15875901  0.79150420  1
  C  C199  1  0.29061328  0.04974424  0.79618788  1
  C  C200  1  0.32306822  0.11578673  0.83165706  1
  H  H201  1  0.33848974  0.14198218  0.84278381  1
  O  O202  1  0.36760005  0.07853058  0.87213437  1
  C  C203  1  0.33764523  0.07965762  0.84486017  1
  C  C204  1  0.29337435  0.11869699  0.80429389  1
  H  H205  1  0.42868922  0.05787559  0.92273350  1
  O  O206  1  0.29326113  0.18947033  0.80721162  1
  C  C207  1  0.38048442  0.04141043  0.88339726  1
  C  C208  1  0.32084666  0.04597916  0.82614897  1
  C  C209  1  0.41083963  0.03304542  0.91082590  1
  O  O210  1  0.46778801  0.02507397  0.97151407  1
  C  C211  1  0.27684742  0.08634889  0.78279389  1
  H  H212  1  0.28186944  0.02191957  0.78122751  1
  N  N213  1  0.33422870  0.00859735  0.83905291  1
  C  C214  1  0.36223078  0.00590478  0.86903994  1
  Zn  Zn215  1  0.27013877  0.24833351  0.81623766  1
  H  H216  1  0.25193092  0.08782155  0.76147815  1
  O  O217  1  0.23511648  0.26503807  0.86490154  1
  C  C218  1  0.20863205  0.29026284  0.87016325  1
  C  C219  1  0.17200640  0.33114321  0.91816232  1
  O  O220  1  0.18853721  0.30128148  0.84034775  1
  H  H221  1  0.15153812  0.33882571  0.89483883  1
  C  C222  1  0.16061511  0.34613456  0.95386164  1
  O  O223  1  0.12973776  0.37098421  0.96174874  1
  C  C224  1  0.20235812  0.30366244  0.91156791  1
  Zn  Zn225  1  0.19266121  0.28343063  0.77791768  1
  C  C226  1  0.18614472  0.33188455  0.98655176  1
  C  C227  1  0.22059113  0.30880264  0.98025690  1
  C  C228  1  0.22679438  0.29211051  0.94384816  1
  H  H229  1  0.07678069  0.42285209  0.98864192  1
  O  O230  1  0.24400751  0.26063752  0.76430272  1
  H  H231  1  0.25245096  0.27203126  0.94218125  1
  C  C232  1  0.40951672  0.28136011  0.83661935  1
  O  O233  1  0.33182752  0.26698559  0.81700047  1
  C  C234  1  0.46852552  0.38858593  0.92239827  1
  H  H235  1  0.39025532  0.26852937  0.85849212  1
  C  C236  1  0.45784463  0.32812914  0.78440905  1
  C  C237  1  0.35264359  0.28385224  0.79076260  1
  C  C238  1  0.46889245  0.36480896  0.88963957  1
  O  O239  1  0.34005879  0.29071300  0.75619636  1
  H  H240  1  0.47538056  0.34841897  0.76612167  1
  C  C241  1  0.47163030  0.31643949  0.82168217  1
  O  O242  1  0.47249706  0.44702183  0.97812350  1
  C  C243  1  0.39532666  0.29548096  0.79891314  1
  C  C244  1  0.44744102  0.29159503  0.84741026  1
  H  H245  1  0.44116283  0.35319956  0.87653605  1
  H  H246  1  0.45814809  0.28210646  0.87658459  1
  H  H247  1  0.43984868  0.39720198  0.93625194  1
  C  C248  1  0.41941693  0.31684555  0.77331926  1
  O  O249  1  0.11633816  0.64348330  0.05173424  1
  C  C250  1  0.13753165  0.67476069  0.06180965  1
  H  H251  1  0.12963933  0.67752412  0.12484129  1
  C  C252  1  0.14407760  0.69167936  0.09897383  1
  C  C253  1  0.16032147  0.69786352  0.03279357  1
  C  C254  1  0.16806845  0.72475145  0.10364650  1
  O  O255  1  0.14989989  0.72555224  0.17169173  1
  C  C256  1  0.17286661  0.73932381  0.14662310  1
  H  H257  1  0.07486431  0.58556934  0.01420226  1
  C  C258  1  0.18519264  0.73186217  0.03920575  1
  C  C259  1  0.19026274  0.74713569  0.07630856  1
  Zn  Zn260  1  0.16858654  0.71929542  0.23310699  1
  C  C261  1  0.11451546  0.63359168  0.01101208  1
  H  H262  1  0.15986942  0.58946361  0.24713590  1
  H  H263  1  0.19956279  0.74775702  0.01248980  1
  N  N264  1  0.46714336  0.65465844  0.17698147  1
  C  C265  1  0.41668967  0.61738490  0.14527792  1
  C  C266  1  0.40646609  0.58992008  0.11635778  1
  C  C267  1  0.45837624  0.62452456  0.15144987  1
  H  H268  1  0.39541190  0.63785200  0.15852458  1
  C  C269  1  0.43418911  0.68056668  0.18771386  1
  C  C270  1  0.43958823  0.56776900  0.10271740  1
  H  H271  1  0.37447735  0.58234168  0.10793608  1
  C  C272  1  0.48019843  0.57406945  0.10815349  1
  C  C273  1  0.41429220  0.70393126  0.15877977  1
  C  C274  1  0.37692746  0.71809834  0.16922811  1
  H  H275  1  0.42388201  0.70970553  0.12849523  1
  C  C276  1  0.43176584  0.53379493  0.07616409  1
  O  O277  1  0.39966412  0.52297230  0.06791239  1
  O  O278  1  0.46479659  0.51698373  0.06033727  1
  C  C279  1  0.49292919  0.60346325  0.13389477  1
  C  C280  1  0.36277879  0.70842828  0.20772292  1
  C  C281  1  0.32018235  0.71628792  0.21765008  1
  C  C282  1  0.42096342  0.67578178  0.22733283  1
  H  H283  1  0.48567238  0.71249477  0.22683456  1
  C  C284  1  0.38364312  0.68880845  0.23886409  1
  H  H285  1  0.35716382  0.73664843  0.14871653  1
  O  O286  1  0.29978721  0.73820925  0.19422030  1
  O  O287  1  0.30638138  0.70138069  0.24825391  1
  H  H288  1  0.43809608  0.65681874  0.24764079  1
  O  O289  1  0.19852932  0.76546363  0.15479691  1
  H  H290  1  0.20623050  0.77476852  0.08440383  1
  Zn  Zn291  1  0.24364873  0.76506854  0.19819745  1
  H  H292  1  0.27955972  0.99430910  0.24003710  1
  C  C293  1  0.25627323  0.85510078  0.22926696  1
  Cu  Cu294  1  0.49510360  0.94669704  0.01104554  1
  O  O295  1  0.35763593  0.92047774  0.15375048  1
  C  C296  1  0.27543425  0.89403745  0.22144765  1
  O  O297  1  0.44940090  0.95890301  0.04382143  1
  H  H298  1  0.40901851  0.93313314  0.09031362  1
  C  C299  1  0.26585903  0.93036259  0.23979274  1
  C  C300  1  0.30731459  0.89074235  0.19327590  1
  C  C301  1  0.28641126  0.96362612  0.22738342  1
  C  C302  1  0.41512782  0.99383675  0.09266511  1
  N  N303  1  0.33540946  0.99499275  0.18757415  1
  C  C304  1  0.37334141  0.95438893  0.14045321  1
  C  C305  1  0.44190236  0.99190382  0.05894930  1
  C  C306  1  0.36331967  0.99309817  0.15710845  1
  C  C307  1  0.39846906  0.95872979  0.10790020  1
  H  H308  1  0.31571780  0.86179509  0.18193304  1
  C  C309  1  0.31789155  0.96017410  0.19932807  1
  C  C310  1  0.32679980  0.92279857  0.17941905  1
  O  O311  1  0.26530256  0.82568753  0.20927661  1
  H  H312  1  0.13558822  0.55434722  0.36193710  1
  C  C313  1  0.19235483  0.53164067  0.32443027  1
  H  H314  1  0.08308441  0.55252277  0.41987688  1
  C  C315  1  0.19315211  0.60609896  0.29819324  1
  C  C316  1  0.12990052  0.52858427  0.38173696  1
  C  C317  1  0.19431883  0.64861201  0.28393830  1
  C  C318  1  0.17607732  0.54010571  0.28631313  1
  C  C319  1  0.17432545  0.57899190  0.27452834  1
  C  C320  1  0.21351338  0.56062779  0.34697531  1
  C  C321  1  0.21248381  0.59874382  0.33498573  1
  H  H322  1  0.16231847  0.51579440  0.27012712  1
  C  C323  1  0.10117510  0.52723884  0.41105335  1
  O  O324  1  0.21209219  0.67191560  0.30742041  1
  O  O325  1  0.17857730  0.65835627  0.25245913  1
  O  O326  1  0.04403597  0.51556991  0.46727664  1
  H  H327  1  0.22790001  0.55389223  0.37533876  1
  H  H328  1  0.22643393  0.62289975  0.35199360  1
  H  H329  1  0.05102322  0.74200141  0.27573116  1
  O  O330  1  0.21915369  0.74956299  0.25026784  1
  Zn  Zn331  1  0.25273715  0.71392305  0.28183655  1
  H  H332  1  0.37101315  0.68340347  0.26806013  1
  C  C333  1  0.00559354  0.81710357  0.32697641  1
  C  C334  1  0.04781141  0.76961667  0.29102129  1
  H  H335  1  0.01334203  0.92319737  0.41857833  1
  O  O336  1  0.03552358  0.86868140  0.37010926  1
  C  C337  1  0.03938076  0.83956706  0.34233900  1
  C  C338  1  0.07494199  0.82682758  0.32879786  1
  H  H339  1  0.10232493  0.84101951  0.33903138  1
  C  C340  1  0.07977999  0.79389543  0.30296543  1
  Zn  Zn341  1  0.21016594  0.80099763  0.28104518  1
  O  O342  1  0.14743350  0.80626905  0.29636125  1
  C  C343  1  0.11913991  0.78242901  0.28753770  1
  O  O344  1  0.22885444  0.78772600  0.34091396  1
  H  H345  1  0.22822304  0.82086477  0.40452129  1
  H  H346  1  0.24196620  0.93210375  0.26216210  1
  C  C347  1  0.01049933  0.78203071  0.30491520  1
  O  O348  1  0.12549169  0.75209270  0.26823651  1
  O  O349  1  0.23018728  0.85276297  0.25629536  1
  H  H350  1  0.35454701  0.86408651  0.42720302  1
  C  C351  1  0.33825299  0.78651964  0.43363888  1
  C  C352  1  0.41666300  0.91678000  0.48604731  1
  C  C353  1  0.39766086  0.90354895  0.45195034  1
  C  C354  1  0.36934542  0.87341118  0.45331508  1
  H  H355  1  0.36748776  0.77269347  0.44311292  1
  C  C356  1  0.31973409  0.77725118  0.39744289  1
  C  C357  1  0.44596648  0.94787776  0.48313657  1
  C  C358  1  0.28049276  0.78835596  0.38769842  1
  H  H359  1  0.25923934  0.84330601  0.47115810  1
  O  O360  1  0.28205959  0.75259479  0.32833720  1
  H  H361  1  0.33876441  0.76602627  0.37421454  1
  O  O362  1  0.45652062  0.95766912  0.44828864  1
  C  C363  1  0.26272861  0.77490143  0.35009211  1
  C  C364  1  0.31450129  0.81056072  0.45977302  1
  H  H365  1  0.40437708  0.91669844  0.42306915  1
  C  C366  1  0.27593114  0.82541739  0.44954814  1
  C  C367  1  0.25918702  0.81240641  0.41480779  1
  C  C368  1  0.36018861  0.85605740  0.49085030  1
  N  N369  1  0.33412133  0.82502553  0.49445047  1
  H  H370  1  0.07687817  0.56114025  0.58250506  1
  C  C371  1  0.11478279  0.54394338  0.63213229  1
  O  O372  1  0.12808220  0.58045771  0.64087179  1
  C  C373  1  0.17406777  0.54839384  0.69001443  1
  C  C374  1  0.15670071  0.58268625  0.67051018  1
  C  C375  1  0.17071413  0.61679071  0.68756969  1
  H  H376  1  0.16183903  0.64579853  0.67459403  1
  C  C377  1  0.19945232  0.61773278  0.71891511  1
  C  C378  1  0.08738584  0.53631415  0.60189536  1
  O  O379  1  0.18829099  0.68560774  0.72104328  1
  N  N380  1  0.15945832  0.51167767  0.68090083  1
  C  C381  1  0.20665744  0.65787655  0.73543747  1
  C  C382  1  0.20392204  0.54964814  0.72151368  1
  C  C383  1  0.21595297  0.58510904  0.73741162  1
  O  O384  1  0.02915869  0.52121031  0.54113313  1
  C  C385  1  0.12916231  0.50817069  0.65253791  1
  Zn  Zn386  1  0.21432640  0.74397464  0.70438882  1
  H  H387  1  0.21477379  0.52351029  0.73522026  1
  H  H388  1  0.26306075  0.74070088  0.57601705  1
  O  O389  1  0.25618119  0.74426691  0.65208029  1
  H  H390  1  0.43174178  0.72744457  0.74968547  1
  C  C391  1  0.01199045  0.97128617  0.56138241  1
  H  H392  1  0.10298218  0.78697978  0.64958918  1
  O  O393  1  0.16665647  0.77916674  0.68693044  1
  H  H394  1  0.03521312  0.80848407  0.63859257  1
  C  C395  1  0.08993705  0.80486447  0.67351265  1
  C  C396  1  0.05215438  0.81772610  0.66646710  1
  C  C397  1  0.04379385  0.93359492  0.61536477  1
  H  H398  1  0.06811081  0.89650564  0.65828582  1
  H  H399  1  0.07398377  0.94206154  0.60608417  1
  C  C400  1  0.03992974  0.90603486  0.64526832  1
  C  C401  1  0.03399604  0.84319880  0.69604016  1
  C  C402  1  0.05561410  0.85788987  0.72941234  1
  C  C403  1  0.10912885  0.81567726  0.70904054  1
  O  O404  1  0.04443475  0.98711029  0.54939907  1
  C  C405  1  0.09217948  0.84099902  0.73764408  1
  C  C406  1  0.15073715  0.80083951  0.71348962  1
  O  O407  1  0.16548578  0.80499183  0.74718802  1
  C  C408  1  0.00899681  0.94510702  0.59502416  1
  C  C409  1  0.00158741  0.89192180  0.65650781  1
  O  O410  1  0.36633316  0.86085742  0.56320327  1
  C  C411  1  0.29062792  0.78373698  0.53724022  1
  H  H412  1  0.42156938  0.91393500  0.54994340  1
  O  O413  1  0.30415410  0.78133819  0.67529659  1
  H  H414  1  0.28069888  0.77157279  0.50922999  1
  C  C415  1  0.37697576  0.87280471  0.52734171  1
  C  C416  1  0.32036759  0.81316772  0.53204956  1
  C  C417  1  0.28289051  0.76828313  0.64649171  1
  C  C418  1  0.33777388  0.82970589  0.56661182  1
  H  H419  1  0.33484522  0.83049251  0.62835296  1
  C  C420  1  0.28033621  0.76684801  0.57374297  1
  Zn  Zn421  1  0.30852362  0.77580328  0.73659225  1
  O  O422  1  0.45794997  0.96598353  0.51363866  1
  C  C423  1  0.29653277  0.78413553  0.60799568  1
  C  C424  1  0.40662314  0.90128410  0.52295291  1
  C  C425  1  0.32414534  0.81560907  0.60240607  1
  O  O426  1  0.25539665  0.75783858  0.74912237  1
  H  H427  1  0.15667383  0.66345532  0.91985069  1
  C  C428  1  0.12129840  0.61337344  0.92647076  1
  C  C429  1  0.14113314  0.64563611  0.94064065  1
  H  H430  1  0.12886217  0.60196067  0.89694762  1
  C  C431  1  0.17430672  0.71319983  0.96135738  1
  C  C432  1  0.09687618  0.59214675  0.95379260  1
  C  C433  1  0.07201560  0.55828658  0.94050871  1
  C  C434  1  0.13592254  0.65662311  0.98189523  1
  O  O435  1  0.04751731  0.54108926  0.96591536  1
  C  C436  1  0.21416687  0.70357077  0.95054168  1
  O  O437  1  0.07523141  0.54928786  0.90635107  1
  C  C438  1  0.23030041  0.71828161  0.91530890  1
  H  H439  1  0.23228229  0.69186817  0.97403197  1
  N  N440  1  0.15588063  0.69105059  0.99241760  1
  C  C441  1  0.09390077  0.60304508  0.99400782  1
  C  C442  1  0.15002887  0.73817731  0.93601555  1
  C  C443  1  0.20666150  0.74176243  0.89102423  1
  H  H444  1  0.23535992  0.58738504  0.76590830  1
  Cu  Cu445  1  0.00882871  0.50352753  0.95855325  1
  O  O446  1  0.23072197  0.65933794  0.76370626  1
  H  H447  1  0.12020997  0.74736706  0.94501945  1
  O  O448  1  0.25328865  0.73795358  0.84139018  1
  H  H449  1  0.26066911  0.71269272  0.90678537  1
  Zn  Zn450  1  0.26105752  0.70951061  0.78792456  1
  H  H451  1  0.42865347  0.57607353  0.92927898  1
  C  C452  1  0.45750735  0.61292556  0.89091478  1
  C  C453  1  0.42539557  0.65337854  0.84396420  1
  C  C454  1  0.39253443  0.67215098  0.82804663  1
  H  H455  1  0.36249095  0.66752619  0.84166613  1
  O  O456  1  0.42160736  0.62787234  0.87475837  1
  C  C457  1  0.46334814  0.66620580  0.82692213  1
  C  C458  1  0.39537248  0.69848788  0.79645496  1
  C  C459  1  0.46509868  0.69160700  0.79276494  1
  C  C460  1  0.45862594  0.58562684  0.92139401  1
  O  O461  1  0.32525189  0.70856261  0.79484128  1
  O  O462  1  0.46958191  0.52788548  0.98207924  1
  C  C463  1  0.35908209  0.71800588  0.77863721  1
  C  C464  1  0.43074722  0.70751270  0.77580729  1
  C  C465  1  0.49682682  0.57368883  0.93719407  1
  O  O466  1  0.36017602  0.74076511  0.75017695  1
  H  H467  1  0.49434322  0.69899504  0.78159519  1
  N  N468  1  0.49687365  0.65201441  0.84443496  1
  C  C469  1  0.49868702  0.54421414  0.96725540  1
  C  C470  1  0.49550751  0.62674142  0.87716112  1
  C  C471  1  0.22367664  0.75685220  0.85411937  1
  C  C472  1  0.16752695  0.75324161  0.90267556  1
  O  O473  1  0.20626910  0.78142846  0.83424754  1
  H  H474  1  0.14870280  0.77135839  0.88227601  1
  Zn  Zn475  1  0.21972830  0.79611948  0.77732409  1
  H  H476  1  0.23585950  0.91486271  0.81412174  1
  H  H477  1  0.04209032  0.87908841  0.75038151  1
  H  H478  1  0.10726848  0.84999557  0.76511717  1
  O  O479  1  0.30567784  0.83852305  0.75927405  1
  C  C480  1  0.45670583  0.99462393  0.95405002  1
  C  C481  1  0.27653509  0.96300051  0.82549542  1
  C  C482  1  0.31789354  0.97462672  0.82179487  1
  H  H483  1  0.25405307  0.97926464  0.84227901  1
  C  C484  1  0.40619606  0.96259810  0.90806951  1
  C  C485  1  0.37292822  0.96730692  0.88501036  1
  O  O486  1  0.25000431  0.84827178  0.78988959  1
  C  C487  1  0.42520908  0.99653304  0.92326608  1
  C  C488  1  0.33325307  0.91422422  0.78685885  1
  C  C489  1  0.28290245  0.86014533  0.77879621  1
  H  H490  1  0.37605820  0.96149077  0.79405328  1
  C  C491  1  0.26671540  0.92615729  0.81208085  1
  C  C492  1  0.29423124  0.90070357  0.79333092  1
  C  C493  1  0.34519332  0.95093982  0.79998930  1
  H  H494  1  0.41370975  0.93276438  0.91769553  1
  H  H495  1  0.35554549  0.89530589  0.77084888  1
  O  O496  1  0.46911133  0.96050814  0.96388074  1
  H  H497  1  0.35556357  0.94187750  0.87468022  1
  C  C498  1  0.69323005  0.03495750  0.15953892  1
  O  O499  1  0.65929296  0.03930986  0.13595871  1
  C  C500  1  0.71367462  0.06600205  0.17567036  1
  H  H501  1  0.70109275  0.09619255  0.17212520  1
  H  H502  1  0.59292220  0.03064035  0.09248777  1
  O  O503  1  0.70734383  0.21804966  0.17967778  1
  C  C504  1  0.68865825  0.23490859  0.20764664  1
  O  O505  1  0.54232165  0.00745379  0.05472581  1
  H  H506  1  0.65351500  0.23885627  0.13308766  1
  Cu  Cu507  1  0.50554403  0.01920519  0.01289394  1
  C  C508  1  0.74925349  0.06354587  0.19904106  1
  H  H509  1  0.53046233  0.24930074  0.20212374  1
  C  C510  1  0.63999184  0.00353420  0.12575483  1
  C  C511  1  0.60572897  0.00300237  0.10422345  1
  O  O512  1  0.74369898  0.13334349  0.20262769  1
  O  O513  1  0.69966183  0.23819256  0.24303098  1
  C  C514  1  0.76560764  0.02635786  0.20676329  1
  C  C515  1  0.76474054  0.10253810  0.21034606  1
  Zn  Zn516  1  0.76400889  0.18921425  0.18416136  1
  O  O517  1  0.80588777  0.20557230  0.13315072  1
  O  O518  1  0.79636982  0.20881520  0.23260857  1
  H  H519  1  0.78433859  0.22608055  0.05892947  1
  O  O520  1  0.79569435  0.10489235  0.23060578  1
  Zn  Zn521  1  0.83961511  0.24342345  0.22066568  1
  C  C522  1  0.82896766  0.23350450  0.13013474  1
  O  O523  1  0.89491667  0.22181826  0.24235503  1
  C  C524  1  0.80870930  0.24827919  0.05679701  1
  O  O525  1  0.84992628  0.24291232  0.15954792  1
  H  H526  1  0.79469319  0.02681454  0.22385035  1
  H  H527  1  0.97032033  0.23459682  0.24118900  1
  C  C528  1  0.64924735  0.25236555  0.19639266  1
  C  C529  1  0.63571336  0.25064835  0.15645228  1
  Cu  Cu530  1  0.54197512  0.49517189  0.01657911  1
  H  H531  1  0.59095149  0.26913773  0.11470567  1
  C  C532  1  0.59837502  0.26647310  0.14719056  1
  O  O533  1  0.54546923  0.45926676  0.05825880  1
  H  H534  1  0.61744049  0.33102370  0.13348169  1
  C  C535  1  0.55742282  0.34845938  0.14856547  1
  C  C536  1  0.57273234  0.41312978  0.10384291  1
  C  C537  1  0.59637360  0.35479493  0.13130113  1
  N  N538  1  0.55044511  0.31514313  0.17139842  1
  C  C539  1  0.57924139  0.28522322  0.18025200  1
  C  C540  1  0.60642858  0.38892003  0.11158490  1
  H  H541  1  0.63603965  0.39827544  0.10094016  1
  C  C542  1  0.57903985  0.44251376  0.07119834  1
  C  C543  1  0.53419947  0.40651855  0.11594158  1
  C  C544  1  0.52577106  0.37669323  0.14379537  1
  O  O545  1  0.61102455  0.44863719  0.05788962  1
  C  C546  1  0.59354886  0.28676458  0.22007981  1
  C  C547  1  0.62888979  0.26851443  0.22918959  1
  C  C548  1  0.51333032  0.31025854  0.18777823  1
  C  C549  1  0.50622662  0.27175419  0.20485210  1
  H  H550  1  0.51047025  0.42626907  0.10313129  1
  H  H551  1  0.57452909  0.30073486  0.24307508  1
  O  O552  1  0.82372799  0.30000652  0.23400085  1
  H  H553  1  0.94759823  0.40121898  0.04680717  1
  H  H554  1  0.87907087  0.29248713  0.11991675  1
  C  C555  1  0.86211239  0.28424189  0.09202541  1
  O  O556  1  0.90125451  0.33619627  0.05869907  1
  O  O557  1  0.97298385  0.45155325  0.02221331  1
  C  C558  1  0.87431138  0.30469112  0.05874472  1
  C  C559  1  0.90602296  0.35575593  0.02368825  1
  C  C560  1  0.83243518  0.25534794  0.09083557  1
  C  C561  1  0.81919349  0.26842364  0.02252855  1
  C  C562  1  0.93035628  0.38852037  0.02052439  1
  C  C563  1  0.85101348  0.29619867  0.02387313  1
  H  H564  1  0.85951380  0.36727726  0.23820887  1
  H  H565  1  0.66631371  0.10098540  0.42026364  1
  H  H566  1  0.60920133  0.05606501  0.41456010  1
  C  C567  1  0.70509668  0.19578936  0.42690913  1
  C  C568  1  0.70745090  0.15842461  0.44793919  1
  C  C569  1  0.64300173  0.10317239  0.44180681  1
  C  C570  1  0.61137543  0.07710945  0.43786460  1
  O  O571  1  0.54571584  0.02505095  0.44026603  1
  C  C572  1  0.73034652  0.12790872  0.43165929  1
  H  H573  1  0.68516457  0.21881542  0.44054262  1
  H  H574  1  0.73017560  0.09929466  0.44876415  1
  C  C575  1  0.55447083  0.04483672  0.47050518  1
  C  C576  1  0.58548519  0.07508569  0.47024658  1
  N  N577  1  0.67896580  0.15492615  0.47885369  1
  C  C578  1  0.64782030  0.12750745  0.47613175  1
  C  C579  1  0.72610894  0.19923356  0.39231516  1
  H  H580  1  0.72902634  0.22855109  0.37948480  1
  H  H581  1  0.74184001  0.19602106  0.48986574  1
  C  C582  1  0.75074272  0.16750097  0.37776479  1
  C  C583  1  0.75315241  0.13183462  0.39774550  1
  H  H584  1  0.77356117  0.10949189  0.38741804  1
  Zn  Zn585  1  0.75955322  0.23404474  0.27075766  1
  O  O586  1  0.77132556  0.20974966  0.32884315  1
  C  C587  1  0.77392612  0.17513024  0.34190588  1
  O  O588  1  0.79594894  0.15140061  0.32336962  1
  C  C589  1  0.94743860  0.15890077  0.30781069  1
  H  H590  1  0.92126823  0.14262006  0.31886842  1
  C  C591  1  0.98440199  0.15258235  0.32616547  1
  C  C592  1  0.94338768  0.18956815  0.28048446  1
  O  O593  1  0.87406188  0.17234184  0.27686593  1
  O  O594  1  0.99030701  0.12241315  0.35413248  1
  Zn  Zn595  1  0.81316067  0.16007809  0.26075051  1
  C  C596  1  0.90168502  0.19400918  0.26633185  1
  C  C597  1  0.97501771  0.21497611  0.26676954  1
  Cu  Cu598  1  0.97189807  0.00868449  0.49319252  1
  H  H599  1  0.64112327  0.26574752  0.25958896  1
  C  C600  1  0.90119942  0.49762435  0.40108606  1
  O  O601  1  0.96713339  0.49677481  0.44769920  1
  N  N602  1  0.82782744  0.46482465  0.33020251  1
  C  C603  1  0.90668506  0.42466434  0.39795033  1
  C  C604  1  0.81964621  0.42887173  0.31179267  1
  C  C605  1  0.84556592  0.41452343  0.28117279  1
  C  C606  1  0.78227915  0.49708509  0.28672870  1
  H  H607  1  0.75873282  0.34737565  0.31784444  1
  C  C608  1  0.87578955  0.42796309  0.37197974  1
  C  C609  1  0.80923629  0.49902886  0.31901638  1
  C  C610  1  0.91889028  0.46124531  0.41253811  1
  C  C611  1  0.85621477  0.46429358  0.36077539  1
  H  H612  1  0.86302633  0.40012606  0.35994990  1
  C  C613  1  0.78041694  0.36832643  0.30665318  1
  O  O614  1  0.77643641  0.29597926  0.27765220  1
  H  H615  1  0.92108206  0.39721846  0.40750698  1
  O  O616  1  0.97203120  0.43218234  0.44687148  1
  C  C617  1  0.80827761  0.35542335  0.27737628  1
  C  C618  1  0.95427867  0.46394118  0.43671554  1
  H  H619  1  0.77952733  0.46839838  0.26985291  1
  H  H620  1  0.76977828  0.41530839  0.34940631  1
  C  C621  1  0.78654838  0.40530217  0.32248010  1
  C  C622  1  0.84108524  0.37765492  0.26383217  1
  C  C623  1  0.80477127  0.31449985  0.26332583  1
  H  H624  1  0.87244719  0.43163379  0.27495485  1
  C  C625  1  0.65741907  0.17327883  0.54481994  1
  O  O626  1  0.62350226  0.15045140  0.54275711  1
  H  H627  1  0.57154636  0.09304876  0.53006940  1
  C  C628  1  0.66803907  0.19383083  0.57864222  1
  H  H629  1  0.65167567  0.19266807  0.60652143  1
  C  C630  1  0.68650748  0.17719322  0.51281423  1
  C  C631  1  0.72244781  0.19896576  0.51698963  1
  C  C632  1  0.61955039  0.12735319  0.50842715  1
  C  C633  1  0.70349048  0.21660783  0.58240395  1
  C  C634  1  0.59018405  0.09866683  0.50441309  1
  Zn  Zn635  1  0.69984903  0.23643647  0.70998434  1
  C  C636  1  0.73183521  0.21902524  0.55177199  1
  O  O637  1  0.53601559  0.04101959  0.50442447  1
  C  C638  1  0.71397685  0.23712196  0.61955211  1
  O  O639  1  0.68896773  0.23685114  0.64809312  1
  O  O640  1  0.69917680  0.17385520  0.72655575  1
  C  C641  1  0.72142064  0.15283296  0.74851897  1
  H  H642  1  0.64800363  0.11941473  0.74716444  1
  C  C643  1  0.96707275  0.18719784  0.67876264  1
  H  H644  1  0.93893033  0.13835985  0.63298844  1
  C  C645  1  0.94968973  0.18913506  0.71795121  1
  C  C646  1  0.91330873  0.20628491  0.72467900  1
  H  H647  1  0.93538819  0.09560703  0.57538860  1
  C  C648  1  0.89421749  0.22228213  0.69111301  1
  C  C649  1  0.96564447  0.13157571  0.61710122  1
  C  C650  1  0.96380872  0.10674052  0.58547990  1
  C  C651  1  0.94660195  0.20591695  0.64686929  1
  C  C652  1  0.85570104  0.24133051  0.69994773  1
  C  C653  1  0.91067975  0.22410424  0.65210079  1
  H  H654  1  0.95966826  0.20460646  0.61798804  1
  H  H655  1  0.96809177  0.18151104  0.74481980  1
  O  O656  1  0.96957768  0.05601622  0.52030931  1
  O  O657  1  0.84214024  0.24100482  0.73535497  1
  H  H658  1  0.76131753  0.23351899  0.55524352  1
  H  H659  1  0.89545648  0.24155370  0.62946304  1
  O  O660  1  0.74740137  0.25432786  0.62106008  1
  H  H661  1  0.57399306  0.26361987  0.74381100  1
  O  O662  1  0.65168771  0.25347201  0.74669247  1
  H  H663  1  0.73548986  0.42749118  0.72387015  1
  O  O664  1  0.74568270  0.36037688  0.72575211  1
  C  C665  1  0.89820442  0.49968721  0.58117514  1
  O  O666  1  0.83484241  0.25610333  0.67213344  1
  C  C667  1  0.82570289  0.44720240  0.64076363  1
  C  C668  1  0.76839134  0.47364171  0.68588406  1
  H  H669  1  0.83027180  0.38404255  0.65033757  1
  C  C670  1  0.78323446  0.40616483  0.68591480  1
  O  O671  1  0.85621961  0.45254153  0.61657116  1
  H  H672  1  0.91604418  0.47527638  0.56797556  1
  C  C673  1  0.86705640  0.49163916  0.60658866  1
  C  C674  1  0.81380863  0.41212313  0.65746191  1
  C  C675  1  0.77262074  0.36592024  0.70032021  1
  O  O676  1  0.79365828  0.33871228  0.68856695  1
  Zn  Zn677  1  0.77345829  0.27530964  0.67801723  1
  C  C678  1  0.75818496  0.43581841  0.69978993  1
  C  C679  1  0.80001972  0.47793532  0.65746304  1
  O  O680  1  0.75111728  0.25909139  0.72960709  1
  H  H681  1  0.58703478  0.09826077  0.89740512  1
  H  H682  1  0.63240126  0.08194537  0.84049893  1
  C  C683  1  0.60023675  0.06947563  0.89538677  1
  C  C684  1  0.62213334  0.05963578  0.86299544  1
  C  C685  1  0.58952180  0.03726120  0.91946927  1
  C  C686  1  0.63843981  0.02010910  0.85598745  1
  C  C687  1  0.68568344  0.04642152  0.80727118  1
  N  N688  1  0.67084817  0.01438469  0.83147876  1
  C  C689  1  0.56270437  0.04876716  0.95315627  1
  C  C690  1  0.65989803  0.06567337  0.77974822  1
  O  O691  1  0.55532621  0.08192813  0.96061329  1
  O  O692  1  0.54961451  0.01892729  0.97362390  1
  C  C693  1  0.72387947  0.06381339  0.81287795  1
  C  C694  1  0.70925861  0.11529872  0.76551316  1
  C  C695  1  0.67007541  0.10205687  0.76261419  1
  H  H696  1  0.63073648  0.05369867  0.77000160  1
  C  C697  1  0.73509160  0.09683012  0.79281141  1
  H  H698  1  0.74345487  0.04773333  0.83489605  1
  H  H699  1  0.76511387  0.10959450  0.79616148  1
  Zn  Zn700  1  0.78621154  0.22025876  0.75458549  1
  H  H701  1  0.83187047  0.23381484  0.87712976  1
  O  O702  1  0.75285938  0.16663728  0.76073357  1
  H  H703  1  0.85228247  0.24206394  0.94788803  1
  H  H704  1  0.89876460  0.20786038  0.75483191  1
  C  C705  1  0.50603747  0.43601933  0.96577045  1
  C  C706  1  0.61340176  0.31948908  0.82015231  1
  H  H707  1  0.64301872  0.33058602  0.82911259  1
  C  C708  1  0.54324226  0.31973763  0.82042160  1
  H  H709  1  0.56862510  0.41200243  0.92403159  1
  C  C710  1  0.54455275  0.36897672  0.88622683  1
  C  C711  1  0.58057612  0.33530319  0.83910663  1
  O  O712  1  0.58052907  0.36041751  0.86979971  1
  C  C713  1  0.54122344  0.39515798  0.91742746  1
  C  C714  1  0.61329815  0.29439275  0.78731038  1
  C  C715  1  0.54036878  0.29424617  0.78620844  1
  O  O716  1  0.68396348  0.29507166  0.78451325  1
  O  O717  1  0.53786013  0.45190628  0.97802995  1
  C  C718  1  0.65281221  0.28154323  0.77011958  1
  Zn  Zn719  1  0.74377506  0.30707205  0.75851990  1
  N  N720  1  0.50807144  0.33197714  0.83784964  1
  C  C721  1  0.57628340  0.28286468  0.76969934  1
  H  H722  1  0.51164668  0.28297855  0.77370449  1
  C  C723  1  0.50651579  0.35375241  0.87260540  1
  C  C724  1  0.50462998  0.40639112  0.93398423  1
  O  O725  1  0.78556982  0.31595764  0.81154526  1
  O  O726  1  0.97203657  0.46164973  0.95733905  1
  C  C727  1  0.96209433  0.44224972  0.98700475  1
  C  C728  1  0.79404088  0.28723986  0.83365204  1
  O  O729  1  0.79282206  0.25428679  0.81789134  1
  C  C730  1  0.80530420  0.33039429  0.89249186  1
  H  H731  1  0.88926471  0.34527561  0.91947540  1
  H  H732  1  0.79272808  0.35562212  0.87481138  1
  C  C733  1  0.84011641  0.26739723  0.93322214  1
  H  H734  1  0.80509455  0.26285766  0.99368889  1
  C  C735  1  0.82765365  0.26210640  0.89424225  1
  N  N736  1  0.85739394  0.31612643  0.98786529  1
  C  C737  1  0.88644513  0.34414177  0.98641367  1
  C  C738  1  0.93572061  0.40783226  0.98388562  1
  C  C739  1  0.89690381  0.36011321  0.94813217  1
  C  C740  1  0.81661806  0.33580602  0.93252432  1
  C  C741  1  0.92124110  0.39239317  0.94724312  1
  C  C742  1  0.83510776  0.30454213  0.95339119  1
  H  H743  1  0.80892393  0.36469936  0.94582988  1
  H  H744  1  0.92811981  0.40730808  0.92109726  1
  C  C745  1  0.81006163  0.29425634  0.87411461  1
  C  C746  1  0.57407485  0.65322965  0.18336512  1
  H  H747  1  0.60310247  0.63923483  0.17155339  1
  C  C748  1  0.53781299  0.64072426  0.16941465  1
  O  O749  1  0.53192425  0.61364819  0.14081622  1
  Zn  Zn750  1  0.71245462  0.65880020  0.22325858  1
  C  C751  1  0.58031994  0.68211786  0.21222486  1
  O  O752  1  0.65003450  0.67116090  0.20886379  1
  C  C753  1  0.62210061  0.68856001  0.22590768  1
  C  C754  1  0.51083333  0.69438161  0.21668221  1
  O  O755  1  0.74598817  0.65789289  0.16699486  1
  C  C756  1  0.54866456  0.70354303  0.23051604  1
  C  C757  1  0.50590222  0.66313846  0.18781810  1
  H  H758  1  0.50205618  0.55353445  0.09550846  1
  O  O759  1  0.73849848  0.60893061  0.24838681  1
  H  H760  1  0.74266779  0.53349231  0.24968676  1
  O  O761  1  0.77000963  0.71546710  0.15860157  1
  C  C762  1  0.76223339  0.68101704  0.14474578  1
  Zn  Zn763  1  0.76764366  0.73713389  0.21547817  1
  H  H764  1  0.75971740  0.60869683  0.10636838  1
  H  H765  1  0.77516919  0.60352663  0.03110378  1
  C  C766  1  0.77013136  0.63358869  0.08770602  1
  C  C767  1  0.77673562  0.67134912  0.10395188  1
  C  C768  1  0.78464155  0.62913346  0.04890637  1
  C  C769  1  0.79339953  0.70386189  0.08459750  1
  C  C770  1  0.80667129  0.66100443  0.03153149  1
  H  H771  1  0.85277943  0.62386217  0.05950920  1
  H  H772  1  0.91099674  0.57463820  0.06223306  1
  C  C773  1  0.89879260  0.58682614  0.03412928  1
  C  C774  1  0.86823029  0.61415047  0.03339306  1
  C  C775  1  0.81055483  0.69905792  0.04738067  1
  H  H776  1  0.82626112  0.72102651  0.03097137  1
  H  H777  1  0.79488721  0.73261982  0.10167372  1
  O  O778  1  0.95958344  0.53273809  0.03313153  1
  O  O779  1  0.82566253  0.74166985  0.24649063  1
  C  C780  1  0.70943382  0.99672575  0.16976998  1
  C  C781  1  0.74581950  0.99340354  0.19262015  1
  H  H782  1  0.64661358  0.85143073  0.22741475  1
  C  C783  1  0.55401324  0.97288449  0.06421793  1
  O  O784  1  0.68538148  0.79164350  0.23346367  1
  C  C785  1  0.65331334  0.96581959  0.13592798  1
  C  C786  1  0.70805100  0.85190964  0.20501382  1
  H  H787  1  0.65087545  0.90286649  0.12924217  1
  C  C788  1  0.73351941  0.90773773  0.17043234  1
  H  H789  1  0.63420932  0.92168876  0.19861845  1
  C  C790  1  0.58753525  0.96762438  0.09058420  1
  C  C791  1  0.69578010  0.92626350  0.17684634  1
  H  H792  1  0.58969468  0.90217701  0.08716818  1
  C  C793  1  0.71528433  0.81084976  0.22081437  1
  O  O794  1  0.53618247  0.94336370  0.04912078  1
  C  C795  1  0.73880621  0.86915352  0.18233302  1
  C  C796  1  0.66398181  0.90708063  0.19723785  1
  N  N797  1  0.68937625  0.96296626  0.15888017  1
  C  C798  1  0.63582437  0.92935241  0.12238990  1
  C  C799  1  0.67096177  0.86991471  0.21215719  1
  C  C800  1  0.60227304  0.92908418  0.09943969  1
  O  O801  1  0.74867634  0.79730409  0.21795392  1
  H  H802  1  0.75558485  0.96378551  0.20114103  1
  H  H803  1  0.76777108  0.85479209  0.17885898  1
  H  H804  1  0.75831233  0.91922177  0.15290720  1
  H  H805  1  0.86719445  0.79666317  0.24219617  1
  Zn  Zn806  1  0.68622981  0.74014227  0.26612076  1
  O  O807  1  0.73565282  0.71399670  0.35802128  1
  O  O808  1  0.73079735  0.70476020  0.25153336  1
  O  O809  1  0.62755751  0.71187343  0.25431461  1
  H  H810  1  0.74348828  0.73214660  0.43413823  1
  C  C811  1  0.70561310  0.73514008  0.36151305  1
  O  O812  1  0.68073152  0.73700000  0.33410047  1
  H  H813  1  0.55331331  0.72254350  0.25717059  1
  C  C814  1  0.75515396  0.60466009  0.28217736  1
  Zn  Zn815  1  0.76026761  0.69809538  0.30107382  1
  C  C816  1  0.86647310  0.50137713  0.37869425  1
  O  O817  1  0.76143952  0.63303896  0.30465286  1
  C  C818  1  0.76440573  0.53162755  0.27431459  1
  C  C819  1  0.77136693  0.56577891  0.29680030  1
  H  H820  1  0.80095479  0.59312564  0.34582168  1
  O  O821  1  0.84642974  0.53537925  0.37185947  1
  C  C822  1  0.81855654  0.53370581  0.34356041  1
  C  C823  1  0.79497816  0.56502756  0.33071195  1
  H  H824  1  0.91438792  0.52295420  0.41562510  1
  O  O825  1  0.82178916  0.71372295  0.30443114  1
  C  C826  1  0.83702467  0.73942694  0.28233532  1
  H  H827  1  0.88152137  0.73082702  0.35178110  1
  Cu  Cu828  1  0.99743291  0.51263975  0.49605365  1
  Cu  Cu829  1  0.50028345  0.98817422  0.43978313  1
  C  C830  1  0.72126254  0.75414939  0.43321990  1
  C  C831  1  0.69681336  0.75793799  0.39864920  1
  C  C832  1  0.70886208  0.77703417  0.46540675  1
  H  H833  1  0.65133681  0.78951525  0.36726937  1
  C  C834  1  0.66686103  0.78727146  0.39445883  1
  C  C835  1  0.65517067  0.81052564  0.42559440  1
  C  C836  1  0.61901966  0.86075384  0.45443160  1
  O  O837  1  0.62566815  0.84218591  0.42163289  1
  H  H838  1  0.57170160  0.90011146  0.43384932  1
  C  C839  1  0.59119412  0.89219455  0.45846206  1
  C  C840  1  0.67647575  0.80401208  0.46222027  1
  O  O841  1  0.53436648  0.94778740  0.45661761  1
  C  C842  1  0.54901745  0.94233717  0.49064715  1
  C  C843  1  0.58073801  0.91222863  0.49246789  1
  H  H844  1  0.72182723  0.77013970  0.49596947  1
  C  C845  1  0.63726899  0.85454220  0.49365273  1
  N  N846  1  0.66354321  0.82359870  0.49697570  1
  O  O847  1  0.97262044  0.96804678  0.45937060  1
  C  C848  1  0.93096430  0.81210013  0.31977390  1
  C  C849  1  0.88793679  0.75668372  0.33415208  1
  C  C850  1  0.94130853  0.95028565  0.44338333  1
  C  C851  1  0.87058576  0.76393332  0.29689825  1
  H  H852  1  0.93343221  0.77661192  0.37593752  1
  H  H853  1  0.89575125  0.85383149  0.35805374  1
  H  H854  1  0.98523107  0.76343800  0.29478565  1
  H  H855  1  0.92793210  0.83920579  0.26044948  1
  C  C856  1  0.88259955  0.79458513  0.27204247  1
  C  C857  1  0.92084214  0.87025911  0.37014852  1
  C  C858  1  0.91464500  0.81776180  0.28047338  1
  C  C859  1  0.91882185  0.78174440  0.34612809  1
  O  O860  1  0.90852751  0.96178352  0.45065271  1
  C  C861  1  0.98791203  0.90859679  0.40472073  1
  N  N862  1  0.96681189  0.82831839  0.33590983  1
  C  C863  1  0.94752887  0.91982900  0.41323536  1
  C  C864  1  0.91382480  0.90163792  0.39529573  1
  C  C865  1  0.96118218  0.85812180  0.36366969  1
  C  C866  1  0.99633567  0.87812833  0.37971800  1
  H  H867  1  0.88310028  0.91152841  0.40303697  1
  Zn  Zn868  1  0.70542392  0.72904854  0.72677934  1
  O  O869  1  0.74030522  0.67758248  0.70345409  1
  H  H870  1  0.72110909  0.61278451  0.67038265  1
  H  H871  1  0.73494931  0.54679132  0.64672260  1
  C  C872  1  0.74952353  0.59993406  0.67891752  1
  C  C873  1  0.77285959  0.66158365  0.71175533  1
  C  C874  1  0.75603911  0.56226988  0.66371694  1
  C  C875  1  0.78012757  0.61984308  0.69942921  1
  C  C876  1  0.90464203  0.53948237  0.57208404  1
  H  H877  1  0.89572147  0.60176184  0.58539851  1
  C  C878  1  0.79625288  0.54728341  0.66881054  1
  C  C879  1  0.85552950  0.56349569  0.61604813  1
  H  H880  1  0.83724928  0.58651886  0.63064668  1
  C  C881  1  0.88602789  0.57219084  0.59072037  1
  C  C882  1  0.84527068  0.52292923  0.62366254  1
  N  N883  1  0.81053052  0.51550936  0.64609902  1
  C  C884  1  0.82582660  0.56580883  0.69354873  1
  C  C885  1  0.81631081  0.60124204  0.71005457  1
  C  C886  1  0.93473623  0.54822729  0.54191761  1
  H  H887  1  0.85408495  0.55084412  0.69699527  1
  H  H888  1  0.75648871  0.50282597  0.69713457  1
  O  O889  1  0.94806270  0.51479569  0.52492378  1
  O  O890  1  0.94611837  0.58067895  0.53284506  1
  O  O891  1  0.79968100  0.68110056  0.72877208  1
  H  H892  1  0.83760386  0.61431811  0.73206649  1
  H  H893  1  0.64979821  0.75293296  0.61088194  1
  O  O894  1  0.69021139  0.75393467  0.66795478  1
  H  H895  1  0.62830477  0.77126445  0.53934344  1
  C  C896  1  0.66562684  0.77466380  0.59300876  1
  C  C897  1  0.65381059  0.78504471  0.55558299  1
  C  C898  1  0.70817225  0.78102762  0.65169517  1
  C  C899  1  0.69843580  0.79352666  0.61010407  1
  C  C900  1  0.67802363  0.81072259  0.53345088  1
  H  H901  1  0.64309865  0.87048003  0.55674393  1
  H  H902  1  0.59053497  0.91929927  0.55736674  1
  C  C903  1  0.59837339  0.90390914  0.52981498  1
  C  C904  1  0.62516611  0.87344106  0.52915685  1
  C  C905  1  0.71092996  0.83340204  0.55157091  1
  C  C906  1  0.71972424  0.82428098  0.58954795  1
  H  H907  1  0.73199164  0.85114620  0.53387659  1
  O  O908  1  0.53769349  0.96242130  0.51984003  1
  O  O909  1  0.73804699  0.79673695  0.66760518  1
  H  H910  1  0.74767520  0.83723437  0.60360110  1
  N  N911  1  0.99861495  0.86058259  0.68301297  1
  C  C912  1  0.95917994  0.80989380  0.71489452  1
  H  H913  1  0.98441508  0.79677825  0.73064657  1
  H  H914  1  0.86081333  0.85765667  0.67957236  1
  C  C915  1  0.96198232  0.84141250  0.68772989  1
  O  O916  1  0.81869612  0.81548045  0.71817152  1
  O  O917  1  0.98000349  0.97937435  0.54400793  1
  C  C918  1  0.92387416  0.79356553  0.72761626  1
  C  C919  1  0.96436748  0.90604122  0.63937366  1
  C  C920  1  0.88876177  0.81291797  0.71454924  1
  C  C921  1  0.97072272  0.93192488  0.60932800  1
  C  C922  1  0.92547385  0.85994579  0.67382918  1
  Zn  Zn923  1  0.75503475  0.80788876  0.72835329  1
  C  C924  1  0.89029344  0.84452649  0.68802163  1
  H  H925  1  0.94332470  0.94488047  0.59913674  1
  O  O926  1  0.92703498  0.89080017  0.64832401  1
  C  C927  1  0.84902807  0.79708252  0.72870876  1
  H  H928  1  0.92047790  0.76776153  0.74873679  1
  O  O929  1  0.84823739  0.76736127  0.74883985  1
  H  H930  1  0.56363507  0.62755727  0.88020637  1
  H  H931  1  0.56285399  0.57941404  0.93519410  1
  C  C932  1  0.60264322  0.70087694  0.79968224  1
  C  C933  1  0.55327633  0.64849369  0.79621832  1
  C  C934  1  0.59080261  0.66512384  0.78381415  1
  C  C935  1  0.53406714  0.59070723  0.92351332  1
  C  C936  1  0.53441455  0.61559334  0.89129179  1
  C  C937  1  0.53387862  0.66632009  0.82906891  1
  C  C938  1  0.55058893  0.70059177  0.84727190  1
  C  C939  1  0.64092860  0.71838470  0.78703828  1
  C  C940  1  0.58298253  0.71973692  0.83305580  1
  O  O941  1  0.53556932  0.53248048  0.97647808  1
  H  H942  1  0.54105361  0.62159494  0.78188062  1
  H  H943  1  0.53603530  0.71110634  0.87544162  1
  H  H944  1  0.60760154  0.64999485  0.76069377  1
  O  O945  1  0.65918109  0.70382490  0.75787313  1
  H  H946  1  0.59568948  0.74570461  0.84901582  1
  O  O947  1  0.65363152  0.74896032  0.80277131  1
  H  H948  1  0.75205733  0.74664006  0.93296467  1
  C  C949  1  0.77300749  0.72307633  0.92998973  1
  C  C950  1  0.78470239  0.70396655  0.96390763  1
  C  C951  1  0.78764497  0.70898286  0.89316463  1
  H  H952  1  0.82762032  0.67286939  0.86137839  1
  C  C953  1  0.81690639  0.67923881  0.89055640  1
  C  C954  1  0.83304864  0.66051727  0.92283771  1
  O  O955  1  0.86324603  0.63302452  0.91971212  1
  H  H956  1  0.92138509  0.58004777  0.93472268  1
  C  C957  1  0.90515875  0.59093167  0.96056553  1
  C  C958  1  0.87467285  0.61823503  0.95528840  1
  C  C959  1  0.81396764  0.67255764  0.96050067  1
  Zn  Zn960  1  0.79185107  0.73043352  0.76469744  1
  C  C961  1  0.77424464  0.72309176  0.85412299  1
  O  O962  1  0.78801360  0.70762851  0.82263486  1
  O  O963  1  0.96947145  0.54218817  0.96797088  1
  N  N964  1  0.82652587  0.65451493  0.99382806  1
  C  C965  1  0.85664900  0.62579708  0.99413794  1
  H  H966  1  0.77459372  0.71392312  0.99424788  1
  C  C967  1  0.91765493  0.57725469  0.99794241  1
  C  C968  1  0.95150966  0.54904348  0.99903760  1
  H  H969  1  0.72186895  0.99405786  0.77008680  1
  C  C970  1  0.60039951  0.99797172  0.91272830  1
  H  H971  1  0.73679955  0.92580806  0.75256498  1
  C  C972  1  0.68051301  0.90717702  0.83530204  1
  O  O973  1  0.74018859  0.85665111  0.76481784  1
  C  C974  1  0.62582227  0.98946199  0.88094623  1
  H  H975  1  0.59096591  0.97477143  0.93236266  1
  Zn  Zn976  1  0.71610540  0.77165529  0.80540247  1
  C  C977  1  0.71705665  0.86008444  0.79330371  1
  H  H978  1  0.67005588  0.88246584  0.85264779  1
  O  O979  1  0.70695814  0.83354398  0.81593955  1
  C  C980  1  0.70364395  0.90035224  0.80250484  1
  O  O981  1  0.64273843  0.95093846  0.87519184  1
  O  O982  1  0.74131423  0.76072161  0.75507209  1
  C  C983  1  0.66840785  0.94535933  0.84595236  1
  C  C984  1  0.71053200  0.96997566  0.78868930  1
  C  C985  1  0.68411835  0.97736530  0.82252225  1
  C  C986  1  0.71866077  0.93237727  0.77890138  1
  O  O987  1  0.75207086  0.75302818  0.85407651  1
