# generated using pymatgen
data_Cu9H65C77N13O12
_symmetry_space_group_name_H-M   'P 1'
_cell_length_a   16.09635590
_cell_length_b   29.57047482
_cell_length_c   32.87577824
_cell_angle_alpha   90.00000000
_cell_angle_beta   90.00000000
_cell_angle_gamma   90.00000000
_symmetry_Int_Tables_number   1
_chemical_formula_structural   Cu9H65C77N13O12
_chemical_formula_sum   'Cu72 H520 C616 N104 O96'
_cell_volume   15648.11058532
_cell_formula_units_Z   8
loop_
 _symmetry_equiv_pos_site_id
 _symmetry_equiv_pos_as_xyz
  1  'x, y, z'
loop_
 _atom_site_type_symbol
 _atom_site_label
 _atom_site_symmetry_multiplicity
 _atom_site_fract_x
 _atom_site_fract_y
 _atom_site_fract_z
 _atom_site_occupancy
  C  C0  1  0.23695204  0.08799058  0.10992483  1
  C  C1  1  0.15519991  0.09998564  0.09724734  1
  C  C2  1  0.31059979  0.11192715  0.09726953  1
  C  C3  1  0.30327742  0.14910339  0.07258745  1
  C  C4  1  0.22104546  0.16507791  0.06255469  1
  H  H5  1  0.09898047  0.08164695  0.10486646  1
  C  C6  1  0.25538253  0.04811405  0.13423460  1
  C  C7  1  0.15147944  0.14023814  0.07418888  1
  Cu  Cu8  1  0.35800177  0.06369809  0.19428929  1
  O  O9  1  0.33031203  0.04086618  0.14347541  1
  C  C10  1  0.11491141  0.20619117  0.18456478  1
  H  H11  1  0.37252797  0.10235797  0.10914534  1
  H  H12  1  0.36120724  0.16837863  0.06336306  1
  C  C13  1  0.16288577  0.16652667  0.19464183  1
  C  C14  1  0.12673288  0.12562818  0.18522714  1
  H  H15  1  0.09318129  0.15814456  0.06622652  1
  C  C16  1  0.21468133  0.20917960  0.03738868  1
  H  H17  1  0.42934446  0.10794449  0.03536034  1
  H  H18  1  0.15503346  0.22213342  0.11228360  1
  H  H19  1  0.34790573  0.21869857  0.09359303  1
  C  C20  1  0.40229606  0.23176580  0.07856420  1
  H  H21  1  0.16325983  0.09404423  0.18791871  1
  C  C22  1  0.41295888  0.18311465  0.16969096  1
  H  H23  1  0.22642874  0.16922754  0.20757376  1
  C  C24  1  0.08001541  0.02522207  0.03179882  1
  C  C25  1  0.04172135  0.12284491  0.16973117  1
  O  O26  1  0.19641189  0.02303882  0.14737006  1
  C  C27  1  0.46431126  0.15230628  0.14099763  1
  C  C28  1  0.03555072  0.20464480  0.16646726  1
  H  H29  1  0.42143353  0.17555082  0.20457347  1
  H  H30  1  0.34684233  0.18234636  0.16097833  1
  H  H31  1  0.43288172  0.21795144  0.16667319  1
  N  N32  1  0.15770569  0.24691629  0.09127648  1
  C  C33  1  0.02033269  0.21355438  0.02472171  1
  O  O34  1  0.37943238  0.08918311  0.24535404  1
  O  O35  1  0.33608165  0.01017455  0.22527536  1
  H  H36  1  0.13644592  0.01419310  0.04935244  1
  C  C37  1  0.48955859  0.16250242  0.09934598  1
  H  H38  1  0.06623396  0.11540404  0.24464927  1
  N  N39  1  0.41198023  0.11452474  0.00663904  1
  O  O40  1  0.48988261  0.24686789  0.23623606  1
  C  C41  1  0.00188005  0.00965388  0.04354474  1
  C  C42  1  0.00096573  0.07838552  0.17528002  1
  C  C43  1  0.02272915  0.05498222  0.21181095  1
  C  C44  1  0.18231683  0.24807907  0.05190965  1
  C  C45  1  0.48077366  0.20722260  0.07946457  1
  C  C46  1  0.26222169  0.21355909  0.00036598  1
  H  H47  1  0.04916881  0.24489048  0.03844759  1
  C  C48  1  0.15677801  0.24899529  0.19073760  1
  O  O49  1  0.22736000  0.24927126  0.20878222  1
  N  N50  1  0.49738217  0.11427817  0.15421847  1
  Cu  Cu51  1  0.29634143  0.11833326  0.00550709  1
  H  H52  1  0.11037159  0.26960665  0.10247472  1
  C  C53  1  0.06813375  0.40340371  0.03119698  1
  C  C54  1  0.42763005  0.31778424  0.22440550  1
  H  H55  1  0.19895293  0.37854712  0.06048264  1
  H  H56  1  0.46032321  0.41634427  0.00441462  1
  H  H57  1  0.48716733  0.37812018  0.13757224  1
  C  C58  1  0.47710747  0.44668487  0.16542244  1
  H  H59  1  0.14544647  0.29507018  0.00020560  1
  C  C60  1  0.37271452  0.38978989  0.21057714  1
  H  H61  1  0.33731672  0.29271203  0.06268870  1
  C  C62  1  0.41580473  0.44267004  0.09299039  1
  O  O63  1  0.39364350  0.34928049  0.00560135  1
  H  H64  1  0.24713384  0.46026965  0.24150851  1
  O  O65  1  0.01748519  0.37886621  0.17683653  1
  C  C66  1  0.27990844  0.47693017  0.21659899  1
  C  C67  1  0.25709671  0.45581270  0.17555573  1
  Cu  Cu68  1  0.19433694  0.49010443  0.06249413  1
  H  H69  1  0.09235951  0.44638124  0.20646958  1
  Cu  Cu70  1  0.09975709  0.34152802  0.20039178  1
  C  C71  1  0.26211674  0.40980536  0.16240676  1
  C  C72  1  0.01475449  0.33398830  0.09099642  1
  C  C73  1  0.22372906  0.37391508  0.09165121  1
  N  N74  1  0.38193427  0.46921397  0.06643585  1
  C  C75  1  0.31518622  0.32587229  0.17409296  1
  H  H76  1  0.34719593  0.47422469  0.22010904  1
  N  N77  1  0.10291776  0.42479206  0.00116143  1
  C  C78  1  0.03976467  0.45275373  0.22891546  1
  C  C79  1  0.45590520  0.33246794  0.01540429  1
  H  H80  1  0.04951833  0.46768385  0.06752128  1
  C  C81  1  0.31234800  0.37383913  0.18110942  1
  O  O82  1  0.12850415  0.28582556  0.17726147  1
  C  C83  1  0.39502817  0.27151391  0.05974814  1
  H  H84  1  0.23391164  0.33955931  0.10283956  1
  H  H85  1  0.10661081  0.42763352  0.09478498  1
  C  C86  1  0.05653520  0.43085943  0.07258388  1
  C  C87  1  0.44057568  0.46596793  0.13002746  1
  C  C88  1  0.17873860  0.29517874  0.03158201  1
  C  C89  1  0.04580298  0.35831172  0.01731982  1
  H  H90  1  0.36096472  0.38924833  0.06450435  1
  H  H91  1  0.27732366  0.30871761  0.15071515  1
  C  C92  1  0.41220527  0.39051289  0.08592276  1
  Cu  Cu93  1  0.22527409  0.35412088  0.24229399  1
  C  C94  1  0.46471032  0.28824148  0.03715683  1
  Cu  Cu95  1  0.32959986  0.46417900  0.01647400  1
  N  N96  1  0.23793583  0.48074951  0.14352006  1
  C  C97  1  0.23549638  0.40896100  0.11889934  1
  H  H98  1  0.37469768  0.26235558  0.18806204  1
  H  H99  1  0.13771568  0.31642211  0.05161942  1
  C  C100  1  0.37066924  0.30019180  0.19606128  1
  H  H101  1  0.38221985  0.42671289  0.21192229  1
  H  H102  1  0.38782899  0.37557193  0.11450010  1
  H  H103  1  0.24092005  0.31234913  0.02587438  1
  N  N104  1  0.21610956  0.45434678  0.10956932  1
  H  H105  1  0.46636232  0.37256503  0.07168593  1
  C  C106  1  0.42815167  0.36538170  0.23203438  1
  H  H107  1  0.05344943  0.35984965  0.10705953  1
  C  C108  1  0.48574243  0.28900543  0.24425186  1
  H  H109  1  0.00069377  0.41967174  0.08736173  1
  C  C110  1  0.00289224  0.32893686  0.04895560  1
  C  C111  1  0.49840212  0.47372175  0.20057991  1
  C  C112  1  0.34443385  0.12952350  0.39847576  1
  C  C113  1  0.29817390  0.15322412  0.43005830  1
  C  C114  1  0.25997128  0.12511170  0.46020199  1
  C  C115  1  0.23005272  0.07848376  0.45618535  1
  H  H116  1  0.36792574  0.09517170  0.40182796  1
  C  C117  1  0.26794222  0.19998829  0.42275997  1
  C  C118  1  0.32621322  0.19435726  0.35519629  1
  C  C119  1  0.35169210  0.14922679  0.36020915  1
  H  H120  1  0.22843128  0.21600427  0.44572047  1
  H  H121  1  0.38146788  0.12891951  0.33619683  1
  C  C122  1  0.26619517  0.03730238  0.43231300  1
  C  C123  1  0.28716095  0.22007796  0.38706603  1
  O  O124  1  0.37104436  0.19400779  0.28782760  1
  C  C125  1  0.42746892  0.02791865  0.35986831  1
  C  C126  1  0.41513809  0.04672687  0.32156587  1
  C  C127  1  0.33309827  0.21638289  0.31564646  1
  C  C128  1  0.13167684  0.12477122  0.39575796  1
  C  C129  1  0.18230342  0.06202610  0.32012300  1
  H  H130  1  0.20646700  0.08992616  0.34081557  1
  C  C131  1  0.10155899  0.04223379  0.32342527  1
  C  C132  1  0.46149936  0.08219510  0.30594617  1
  C  C133  1  0.23563263  0.04724241  0.29020545  1
  C  C134  1  0.13274145  0.19984147  0.29877188  1
  H  H135  1  0.29565516  0.06467894  0.28531485  1
  H  H136  1  0.09700367  0.16922328  0.30765759  1
  H  H137  1  0.17242731  0.21320808  0.32384816  1
  H  H138  1  0.19240922  0.10492730  0.39370542  1
  H  H139  1  0.14044428  0.15488092  0.37446238  1
  H  H140  1  0.37110492  0.03235165  0.29826323  1
  H  H141  1  0.12495264  0.13727272  0.42736076  1
  C  C142  1  0.44250661  0.10169725  0.26670212  1
  C  C143  1  0.06124909  0.21751130  0.44092769  1
  N  N144  1  0.15416709  0.07722016  0.47003849  1
  H  H145  1  0.17419750  0.19248825  0.27261816  1
  C  C146  1  0.06973270  0.23711649  0.28775580  1
  Cu  Cu147  1  0.04922465  0.04808854  0.47066080  1
  C  C148  1  0.05556251  0.09563975  0.38338887  1
  C  C149  1  0.04037068  0.06100857  0.35157379  1
  H  H150  1  0.24862990  0.03850259  0.40010755  1
  Cu  Cu151  1  0.49333944  0.19501993  0.27274265  1
  C  C152  1  0.48180355  0.05187825  0.38824251  1
  H  H153  1  0.24291799  0.00402807  0.44464633  1
  H  H154  1  0.33553841  0.03908829  0.43329071  1
  C  C155  1  0.21101630  0.15353064  0.49032785  1
  C  C156  1  0.21367118  0.01044162  0.26435997  1
  H  H157  1  0.05535206  0.00831312  0.39791809  1
  H  H158  1  0.00979358  0.07435191  0.27641616  1
  H  H159  1  0.05812770  0.18237058  0.42505597  1
  C  C160  1  0.48799227  0.03580466  0.42980606  1
  H  H161  1  0.11714667  0.06539691  0.26026758  1
  N  N162  1  0.14568065  0.12623548  0.49490888  1
  C  C163  1  0.08401847  0.00250565  0.29824946  1
  C  C164  1  0.05494336  0.07913070  0.25108427  1
  H  H165  1  0.08166382  0.24779386  0.35330313  1
  O  O166  1  0.48579540  0.13499920  0.25544066  1
  H  H167  1  0.08403843  0.20982714  0.47212285  1
  H  H168  1  0.04941923  0.27151335  0.49682438  1
  C  C169  1  0.26436350  0.49965134  0.36547431  1
  H  H170  1  0.24841132  0.37697042  0.43783142  1
  H  H171  1  0.27769259  0.25853478  0.38310433  1
  H  H172  1  0.47069837  0.38435450  0.25147111  1
  C  C173  1  0.24374029  0.31012994  0.49775098  1
  H  H174  1  0.14709072  0.49459410  0.47059961  1
  H  H175  1  0.04452056  0.31636582  0.40768295  1
  C  C176  1  0.19215009  0.43254453  0.34175389  1
  O  O177  1  0.30477310  0.25519682  0.30893328  1
  C  C178  1  0.25213473  0.36131414  0.40786417  1
  C  C179  1  0.15592032  0.29120641  0.43571932  1
  C  C180  1  0.44496337  0.46288864  0.47308446  1
  C  C181  1  0.45925437  0.41361469  0.41555258  1
  C  C182  1  0.49350877  0.43094704  0.49571114  1
  C  C183  1  0.11092313  0.25452106  0.41910671  1
  H  H184  1  0.11689732  0.41069886  0.48522186  1
  N  N185  1  0.00974387  0.30898581  0.27626953  1
  N  N186  1  0.16694976  0.30498205  0.37018067  1
  O  O187  1  0.38765943  0.43656630  0.34970347  1
  H  H188  1  0.06344417  0.35741418  0.46555679  1
  C  C189  1  0.19012526  0.32108855  0.40529497  1
  H  H190  1  0.32053627  0.35239935  0.40295522  1
  C  C191  1  0.43271784  0.40561566  0.37208805  1
  H  H192  1  0.37929509  0.47397013  0.41670570  1
  H  H193  1  0.12534661  0.42915729  0.41947836  1
  C  C194  1  0.16698399  0.45873500  0.41341287  1
  Cu  Cu195  1  0.17745850  0.31720409  0.31352830  1
  C  C196  1  0.04949322  0.49154336  0.25220821  1
  H  H197  1  0.41936985  0.49326365  0.48638579  1
  C  C198  1  0.16973503  0.29453102  0.48033410  1
  Cu  Cu199  1  0.03256718  0.36867819  0.26422006  1
  C  C200  1  0.08299412  0.37878494  0.49414308  1
  H  H201  1  0.37495974  0.39319019  0.29878941  1
  N  N202  1  0.10893066  0.39271412  0.30135877  1
  C  C203  1  0.21314516  0.46250913  0.37590323  1
  C  C204  1  0.34478796  0.42214623  0.31257027  1
  O  O205  1  0.44673896  0.37031921  0.35682857  1
  C  C206  1  0.25056072  0.41346450  0.31222212  1
  H  H207  1  0.24174615  0.38908573  0.38462341  1
  H  H208  1  0.36043511  0.45364444  0.29315184  1
  H  H209  1  0.29389592  0.31980949  0.47730382  1
  Cu  Cu210  1  0.25783064  0.27072015  0.26191635  1
  C  C211  1  0.10685591  0.41854658  0.33353169  1
  C  C212  1  0.42194319  0.45169240  0.43330261  1
  N  N213  1  0.11011783  0.25906393  0.37908441  1
  N  N214  1  0.20876617  0.38885307  0.28735200  1
  H  H215  1  0.29869539  0.49857375  0.33561418  1
  N  N216  1  0.09463048  0.27984608  0.28940033  1
  C  C217  1  0.02304729  0.43383168  0.35234193  1
  H  H218  1  0.01828429  0.47150074  0.34877380  1
  H  H219  1  0.01624878  0.42431461  0.38470790  1
  O  O220  1  0.00200145  0.33035873  0.42578516  1
  C  C221  1  0.17944273  0.49306147  0.44093613  1
  C  C222  1  0.40574366  0.04425321  0.64661641  1
  C  C223  1  0.36034808  0.08526321  0.63696071  1
  C  C224  1  0.34729748  0.08968317  0.59375355  1
  C  C225  1  0.29897835  0.11127493  0.66190282  1
  C  C226  1  0.25856851  0.08370890  0.69140984  1
  N  N227  1  0.42808318  0.02633523  0.61316652  1
  C  C228  1  0.26936504  0.15693262  0.65406248  1
  H  H229  1  0.29931501  0.18154819  0.63146336  1
  C  C230  1  0.19869493  0.16962795  0.67519654  1
  H  H231  1  0.28370477  0.04846017  0.69440632  1
  C  C232  1  0.19069196  0.09752725  0.71450082  1
  N  N233  1  0.38951117  0.05752416  0.57544678  1
  C  C234  1  0.28850332  0.11962806  0.56939921  1
  C  C235  1  0.16646493  0.14097552  0.70648547  1
  H  H236  1  0.26990152  0.10950310  0.53748182  1
  H  H237  1  0.23049463  0.12804170  0.58483506  1
  H  H238  1  0.31683924  0.15329149  0.56642005  1
  H  H239  1  0.17370328  0.20412499  0.67239724  1
  Cu  Cu240  1  0.40101262  0.03076125  0.52671188  1
  H  H241  1  0.44838529  0.15026455  0.58635258  1
  H  H242  1  0.18618849  0.20816486  0.53290164  1
  C  C243  1  0.10933726  0.09771784  0.62539002  1
  C  C244  1  0.07778871  0.06739468  0.59081919  1
  H  H245  1  0.41101385  0.22111794  0.61671122  1
  N  N246  1  0.06703660  0.08176832  0.55444579  1
  Cu  Cu247  1  0.05153123  0.13306797  0.52449540  1
  H  H248  1  0.15135002  0.07459650  0.73465510  1
  H  H249  1  0.12729378  0.13122426  0.61178470  1
  H  H250  1  0.06722617  0.10033627  0.65138700  1
  H  H251  1  0.16934299  0.08505575  0.64045683  1
  C  C252  1  0.04565691  0.02141514  0.59359130  1
  C  C253  1  0.09020078  0.15855741  0.72981774  1
  N  N254  1  0.02846049  0.03898005  0.52754458  1
  C  C255  1  0.43329247  0.01831335  0.68516060  1
  H  H256  1  0.11717497  0.01104890  0.67038923  1
  C  C257  1  0.47595184  0.20834622  0.62144268  1
  H  H258  1  0.15077704  0.01658962  0.54584597  1
  C  C259  1  0.21376548  0.01391293  0.56317360  1
  C  C260  1  0.49945241  0.16955320  0.60134840  1
  C  C261  1  0.22927994  0.19336702  0.51092498  1
  H  H262  1  0.20358690  0.01379401  0.59523808  1
  C  C263  1  0.02513409  0.00034444  0.55411127  1
  H  H264  1  0.44481975  0.03952744  0.71325228  1
  H  H265  1  0.24478175  0.04625131  0.55778090  1
  H  H266  1  0.46215533  0.18161642  0.74348396  1
  O  O267  1  0.07047277  0.19756692  0.72718258  1
  H  H268  1  0.28923371  0.21151484  0.50653070  1
  C  C269  1  0.01027706  0.38649175  0.52339084  1
  C  C270  1  0.48971709  0.40272757  0.56883426  1
  C  C271  1  0.12075308  0.28150270  0.55118193  1
  C  C272  1  0.00490787  0.42561082  0.54801217  1
  O  O273  1  0.46999087  0.46890037  0.72053422  1
  C  C274  1  0.25979202  0.31025382  0.53934263  1
  H  H275  1  0.41566958  0.27065943  0.73279402  1
  H  H276  1  0.32198662  0.32014156  0.54870595  1
  C  C277  1  0.45687743  0.30946391  0.65597315  1
  H  H278  1  0.32193496  0.32989161  0.65720107  1
  C  C279  1  0.48190016  0.35017811  0.56723021  1
  C  C280  1  0.15265308  0.44829378  0.56214223  1
  N  N281  1  0.49892340  0.47664531  0.59625676  1
  O  O282  1  0.19124426  0.27905265  0.63852213  1
  H  H283  1  0.41496593  0.34025199  0.56243143  1
  O  O284  1  0.34215611  0.45844691  0.69757489  1
  H  H285  1  0.27109932  0.47547096  0.58667094  1
  O  O286  1  0.32704529  0.29426317  0.61034709  1
  C  C287  1  0.36059184  0.29741531  0.64908149  1
  H  H288  1  0.33548712  0.27132288  0.67031920  1
  C  C289  1  0.23132585  0.28742140  0.61001812  1
  C  C290  1  0.20093893  0.29239897  0.56650088  1
  N  N291  1  0.48578111  0.34878913  0.66095147  1
  C  C292  1  0.20730090  0.48236361  0.57567488  1
  C  C293  1  0.07151752  0.46107863  0.55124907  1
  C  C294  1  0.39364956  0.46160153  0.72683813  1
  Cu  Cu295  1  0.46134730  0.41276893  0.65876874  1
  H  H296  1  0.07165007  0.26848178  0.57097903  1
  H  H297  1  0.16958834  0.41237970  0.56205344  1
  C  C298  1  0.11023069  0.27986140  0.51025085  1
  N  N299  1  0.47969091  0.42185216  0.60332176  1
  H  H300  1  0.12851879  0.35884428  0.51320827  1
  N  N301  1  0.18992957  0.05577687  0.79728416  1
  Cu  Cu302  1  0.16546946  0.16982984  0.85335406  1
  N  N303  1  0.09167042  0.05936285  0.79563112  1
  Cu  Cu304  1  0.24321581  0.11322325  0.79883761  1
  N  N305  1  0.09940058  0.13403202  0.89069451  1
  N  N306  1  0.22415497  0.03870432  0.90001665  1
  Cu  Cu307  1  0.24110768  0.09562975  0.87695055  1
  N  N308  1  0.29371736  0.02859763  0.93820631  1
  C  C309  1  0.09871735  0.12415174  0.93415149  1
  N  N310  1  0.29745682  0.17166888  0.79964391  1
  C  C311  1  0.14272340  0.14301426  0.96484281  1
  N  N312  1  0.33416169  0.11324958  0.91163295  1
  H  H313  1  0.19779064  0.16550806  0.96059641  1
  Cu  Cu314  1  0.36533775  0.07284299  0.95242830  1
  C  C315  1  0.36575765  0.19073116  0.78934036  1
  N  N316  1  0.23753170  0.21111533  0.82152442  1
  H  H317  1  0.19446083  0.21859526  0.79985568  1
  C  C318  1  0.38822447  0.14610192  0.91343107  1
  C  C319  1  0.37635561  0.18100690  0.87704604  1
  H  H320  1  0.33634928  0.18063628  0.96279773  1
  N  N321  1  0.29799323  0.17787880  0.98668877  1
  H  H322  1  0.38978343  0.21560851  0.88784479  1
  H  H323  1  0.31197456  0.18100045  0.86499639  1
  H  H324  1  0.41167928  0.17107275  0.85160424  1
  C  C325  1  0.45225884  0.15260049  0.94511139  1
  C  C326  1  0.47094914  0.13182503  0.98381841  1
  C  C327  1  0.35960839  0.23644747  0.80342471  1
  Cu  Cu328  1  0.06027680  0.12177221  0.80973667  1
  N  N329  1  0.04136502  0.10802536  0.87134373  1
  C  C330  1  0.06448498  0.02118463  0.78562190  1
  C  C331  1  0.20885221  0.01232069  0.79468654  1
  H  H332  1  0.45326808  0.24124524  0.97622160  1
  H  H333  1  0.15077544  0.06020363  0.98375303  1
  H  H334  1  0.08448636  0.02311467  0.85670192  1
  H  H335  1  0.34119089  0.03229813  0.78196854  1
  C  C336  1  0.18159392  0.00039336  0.90110000  1
  C  C337  1  0.09063636  0.05087566  0.99664268  1
  N  N338  1  0.00944386  0.22801059  0.98529846  1
  C  C339  1  0.03122024  0.08988758  0.93792640  1
  C  C340  1  0.01739900  0.06117912  0.97389043  1
  C  C341  1  0.44285192  0.16508866  0.77185410  1
  H  H342  1  0.13078534  0.13202928  0.99622992  1
  O  O343  1  0.04466013  0.12955537  0.75082964  1
  C  C344  1  0.49937549  0.23675039  0.95276958  1
  C  C345  1  0.30385839  0.00238005  0.79484878  1
  H  H346  1  0.49492322  0.16744408  0.79270112  1
  H  H347  1  0.28852983  0.24421730  0.94079640  1
  H  H348  1  0.42833582  0.12787084  0.76257754  1
  C  C349  1  0.28375551  0.25405236  0.82293336  1
  H  H350  1  0.48951390  0.47414259  0.78642773  1
  H  H351  1  0.48503657  0.48649700  0.91304695  1
  C  C352  1  0.27373215  0.25568994  0.97331852  1
  C  C353  1  0.35122075  0.46892244  0.92513507  1
  H  H354  1  0.32696074  0.27585137  0.98491868  1
  H  H355  1  0.46482998  0.28380301  0.86188836  1
  C  C356  1  0.29079250  0.46886047  0.89285663  1
  H  H357  1  0.23231034  0.44161408  0.75419652  1
  C  C358  1  0.47886720  0.28856140  0.83012599  1
  C  C359  1  0.45004380  0.28451748  0.75828452  1
  H  H360  1  0.46778505  0.42614586  0.92073406  1
  C  C361  1  0.05425981  0.35152222  0.97536498  1
  C  C362  1  0.26455054  0.29689137  0.83649042  1
  H  H363  1  0.11525809  0.39576895  0.93237083  1
  N  N364  1  0.31236953  0.47041335  0.95925980  1
  H  H365  1  0.46233324  0.46287456  0.96176463  1
  H  H366  1  0.09149249  0.45929384  0.87023005  1
  C  C367  1  0.27970525  0.44907867  0.77828136  1
  H  H368  1  0.44715610  0.47965804  0.85864625  1
  Cu  Cu369  1  0.13843442  0.48412370  0.99248824  1
  H  H370  1  0.20211176  0.30135212  0.84961517  1
  N  N371  1  0.09419317  0.38740074  0.96082125  1
  C  C372  1  0.40057711  0.46933850  0.83757931  1
  C  C373  1  0.43241234  0.26817046  0.79848337  1
  C  C374  1  0.25824929  0.45287254  0.81894684  1
  H  H375  1  0.08119202  0.31124694  0.91976762  1
  H  H376  1  0.30803529  0.32545458  0.83717694  1
  C  C377  1  0.20745560  0.47501542  0.90836615  1
  N  N378  1  0.21302708  0.47536446  0.94755665  1
  C  C379  1  0.12365454  0.48706590  0.88753948  1
  C  C380  1  0.03740265  0.31132132  0.94641445  1
  C  C381  1  0.44792037  0.46124598  0.92981541  1
  C  C382  1  0.31791772  0.46213609  0.85045173  1
  C  C383  1  0.36503627  0.45978070  0.76932216  1
  C  C384  1  0.42674579  0.47082354  0.79786419  1
  H  H385  1  0.03824029  0.27624168  0.96157979  1
  H  H386  1  0.19488731  0.44534493  0.82876556  1
  H  H387  1  0.21669547  0.27599824  0.97398608  1
  C  C388  1  0.25444537  0.64829303  0.11380499  1
  N  N389  1  0.21654194  0.60681166  0.11272006  1
  C  C390  1  0.33921766  0.65180903  0.12290931  1
  Cu  Cu391  1  0.23824414  0.54597833  0.12887481  1
  Cu  Cu392  1  0.31148322  0.67684074  0.04256747  1
  H  H393  1  0.37796671  0.62277262  0.12585704  1
  C  C394  1  0.18700516  0.68164030  0.10929823  1
  C  C395  1  0.19439360  0.73039158  0.11605901  1
  H  H396  1  0.36663077  0.68706605  0.12503807  1
  Cu  Cu397  1  0.18451958  0.62139851  0.03160666  1
  Cu  Cu398  1  0.08761773  0.54920374  0.09818062  1
  C  C399  1  0.11602369  0.65404818  0.09906988  1
  N  N400  1  0.13102635  0.61042572  0.09963093  1
  N  N401  1  0.42153320  0.65761340  0.04154850  1
  N  N402  1  0.43164292  0.60518234  0.05014827  1
  Cu  Cu403  1  0.32972197  0.57286951  0.05923744  1
  C  C404  1  0.43192216  0.55728902  0.15053915  1
  N  N405  1  0.04217185  0.54557371  0.04683487  1
  N  N406  1  0.38510982  0.52217532  0.08819737  1
  C  C407  1  0.41902538  0.51411177  0.12392400  1
  N  N408  1  0.09566086  0.58060390  0.01367497  1
  H  H409  1  0.46394152  0.58459550  0.13098303  1
  H  H410  1  0.31087603  0.73719226  0.15506093  1
  H  H411  1  0.26394931  0.51409223  0.21796907  1
  H  H412  1  0.08743491  0.74114641  0.07467917  1
  H  H413  1  0.37501949  0.57102653  0.16352851  1
  H  H414  1  0.47571824  0.55070380  0.17726733  1
  C  C415  1  0.02855093  0.66915370  0.08713651  1
  H  H416  1  0.01646411  0.66847050  0.05440464  1
  H  H417  1  0.44452864  0.63849831  0.20515046  1
  C  C418  1  0.36578617  0.58813884  0.24332993  1
  H  H419  1  0.30271619  0.60111293  0.23879273  1
  H  H420  1  0.01720638  0.70468324  0.09764341  1
  H  H421  1  0.46694792  0.50642965  0.20620398  1
  C  C422  1  0.43712285  0.60950184  0.22610139  1
  C  C423  1  0.49700180  0.67282215  0.03632321  1
  H  H424  1  0.10865545  0.50902634  0.24946500  1
  N  N425  1  0.32013703  0.72016176  0.00436309  1
  H  H426  1  0.45696300  0.74490685  0.02155712  1
  C  C427  1  0.26060594  0.75367260  0.13866711  1
  H  H428  1  0.11258052  0.77662548  0.20711313  1
  N  N429  1  0.45302995  0.96148509  0.11154702  1
  H  H430  1  0.49392356  0.88428899  0.16457910  1
  H  H431  1  0.08884437  0.87435217  0.03137848  1
  C  C432  1  0.36175753  0.89499625  0.08727370  1
  H  H433  1  0.29388919  0.81839659  0.16444029  1
  C  C434  1  0.13260547  0.75610923  0.09474079  1
  O  O435  1  0.24054577  0.96129572  0.20879335  1
  H  H436  1  0.16882478  0.94034011  0.00895584  1
  H  H437  1  0.12201659  0.85039051  0.22168665  1
  H  H438  1  0.34926232  0.88598717  0.11922228  1
  H  H439  1  0.28621597  0.97535646  0.01912348  1
  H  H440  1  0.22841688  0.86140737  0.02438851  1
  N  N441  1  0.28104091  0.77287567  0.02194076  1
  O  O442  1  0.01536415  0.91185984  0.19895593  1
  Cu  Cu443  1  0.42703257  0.98174684  0.16247145  1
  H  H444  1  0.43883430  0.85359498  0.03180113  1
  C  C445  1  0.46401823  0.87143907  0.00564303  1
  C  C446  1  0.46826279  0.94725880  0.04588999  1
  O  O447  1  0.22294402  0.89521976  0.15642877  1
  C  C448  1  0.12678050  0.80202460  0.10269468  1
  H  H449  1  0.08441887  0.82164948  0.08568021  1
  H  H450  1  0.30287633  0.90654361  0.07231676  1
  C  C451  1  0.17622482  0.87319332  0.13237758  1
  O  O452  1  0.11189188  0.89155538  0.11746903  1
  H  H453  1  0.25269930  0.77617077  0.04943206  1
  O  O454  1  0.05585301  0.96915826  0.09943660  1
  C  C455  1  0.18854605  0.82514939  0.12592471  1
  Cu  Cu456  1  0.04488058  0.93732273  0.14667544  1
  C  C457  1  0.25065592  0.79904556  0.14544305  1
  C  C458  1  0.26484116  0.99263308  0.23134980  1
  H  H459  1  0.38424413  0.86174488  0.07517306  1
  C  C460  1  0.42783675  0.93409902  0.08303192  1
  Cu  Cu461  1  0.20434665  0.95903427  0.15425681  1
  C  C462  1  0.47694297  0.91985511  0.00830407  1
  N  N463  1  0.11157869  0.83087200  0.24780636  1
  C  C464  1  0.10471119  0.78690947  0.23887149  1
  C  C465  1  0.10745704  0.87917451  0.00018028  1
  O  O466  1  0.00029925  0.80511228  0.01536850  1
  H  H467  1  0.32297755  0.87525117  0.00183447  1
  N  N468  1  0.31131424  0.72038704  0.46215040  1
  Cu  Cu469  1  0.40718908  0.68853851  0.46040786  1
  O  O470  1  0.29705902  0.60228646  0.45038925  1
  C  C471  1  0.23941031  0.57076331  0.45518379  1
  H  H472  1  0.08701560  0.54155988  0.36744067  1
  C  C473  1  0.09553784  0.57181348  0.34671904  1
  C  C474  1  0.22944975  0.53012833  0.42805680  1
  H  H475  1  0.15312274  0.56481960  0.32859546  1
  H  H476  1  0.10336043  0.60374515  0.36726766  1
  C  C477  1  0.10054352  0.70221970  0.43513262  1
  H  H478  1  0.09247973  0.73316618  0.45508659  1
  H  H479  1  0.14746661  0.67809798  0.44990871  1
  H  H480  1  0.31153829  0.56459778  0.38325967  1
  C  C481  1  0.27357713  0.53611604  0.39079432  1
  Cu  Cu482  1  0.38712809  0.60888745  0.48398570  1
  O  O483  1  0.19829259  0.56929683  0.48619455  1
  H  H484  1  0.12448355  0.71694071  0.40635561  1
  C  C485  1  0.01996536  0.57975802  0.31930751  1
  C  C486  1  0.45906968  0.53521373  0.27398185  1
  H  H487  1  0.11366872  0.71887712  0.26307696  1
  H  H488  1  0.47221819  0.50640516  0.29306030  1
  H  H489  1  0.32294969  0.53509627  0.28197205  1
  C  C490  1  0.37634574  0.54970645  0.26775680  1
  C  C491  1  0.01994315  0.67494432  0.43125839  1
  H  H492  1  0.10108145  0.74232565  0.33788639  1
  Cu  Cu493  1  0.00647767  0.67557484  0.33996153  1
  H  H494  1  0.44743806  0.88143460  0.47511969  1
  H  H495  1  0.02654225  0.98516034  0.30303294  1
  H  H496  1  0.43365250  0.83087129  0.44275704  1
  C  C497  1  0.10447107  0.75613628  0.27049135  1
  N  N498  1  0.48831191  0.98602400  0.47901333  1
  H  H499  1  0.12233871  0.95493794  0.25282243  1
  C  C500  1  0.09775116  0.82610114  0.48732396  1
  H  H501  1  0.39563587  0.99704978  0.36871363  1
  H  H502  1  0.44261569  0.93184331  0.39954635  1
  C  C503  1  0.20893822  0.76555770  0.47055142  1
  C  C504  1  0.27542750  0.75229926  0.44332643  1
  H  H505  1  0.26963710  0.75372867  0.37680970  1
  C  C506  1  0.40786652  0.95181550  0.42308377  1
  H  H507  1  0.04499903  0.89136319  0.36633386  1
  H  H508  1  0.37770530  0.75827271  0.39761042  1
  C  C509  1  0.45708548  0.99161802  0.44280577  1
  C  C510  1  0.48136253  0.85117653  0.46303203  1
  H  H511  1  0.37697163  0.92717371  0.44597866  1
  H  H512  1  0.18339100  0.97447717  0.35728015  1
  H  H513  1  0.11456699  0.82888504  0.35020361  1
  C  C514  1  0.02172286  0.84398424  0.47635421  1
  C  C515  1  0.12288006  0.79596131  0.41612143  1
  C  C516  1  0.10215140  0.76659588  0.31236150  1
  N  N517  1  0.06988619  0.97490112  0.44769750  1
  C  C518  1  0.11581143  0.84363751  0.28666626  1
  C  C519  1  0.11998118  0.94610039  0.46621873  1
  C  C520  1  0.18333642  0.92010766  0.44999756  1
  C  C521  1  0.14379715  0.79927829  0.45810307  1
  C  C522  1  0.20893547  0.93155861  0.40993428  1
  C  C523  1  0.04613321  0.81304309  0.40550577  1
  C  C524  1  0.30955068  0.76814928  0.40139661  1
  H  H525  1  0.03604486  0.93347125  0.32638214  1
  H  H526  1  0.02317251  0.81029347  0.37303022  1
  H  H527  1  0.35091226  0.96543600  0.40837563  1
  C  C528  1  0.00223763  0.91686268  0.35235834  1
  C  C529  1  0.09410831  0.98230822  0.41042090  1
  C  C530  1  0.11552630  0.81289335  0.31929237  1
  C  C531  1  0.16340962  0.96430918  0.38864501  1
  C  C532  1  0.13899716  0.98630966  0.27069640  1
  H  H533  1  0.21428038  0.89361946  0.46811775  1
  H  H534  1  0.12925339  0.88231052  0.28771127  1
  H  H535  1  0.25707912  0.91067759  0.39475453  1
  H  H536  1  0.16414546  0.77739412  0.39414179  1
  H  H537  1  0.30046233  0.80534569  0.39613418  1
  H  H538  1  0.09236826  0.94089857  0.49689216  1
  N  N539  1  0.35024188  0.69102049  0.58262143  1
  C  C540  1  0.36273045  0.68902969  0.62155356  1
  C  C541  1  0.34285872  0.64780501  0.64821677  1
  H  H542  1  0.08395455  0.57745389  0.56412329  1
  O  O543  1  0.20737592  0.60373493  0.59376308  1
  C  C544  1  0.10100286  0.54137289  0.56067877  1
  Cu  Cu545  1  0.31892763  0.66117922  0.53563974  1
  C  C546  1  0.38572706  0.73307257  0.63672179  1
  H  H547  1  0.37590934  0.68440593  0.71351200  1
  O  O548  1  0.23575550  0.70627177  0.72807456  1
  H  H549  1  0.31595367  0.62116444  0.62944885  1
  C  C550  1  0.35077865  0.57112573  0.72626586  1
  H  H551  1  0.29852724  0.65664112  0.67101160  1
  C  C552  1  0.23296468  0.56495312  0.59365342  1
  N  N553  1  0.36023643  0.54670351  0.69521077  1
  H  H554  1  0.40127724  0.63623857  0.66398601  1
  O  O555  1  0.10370341  0.68695803  0.73369210  1
  H  H556  1  0.11463118  0.65342186  0.58454132  1
  O  O557  1  0.06449284  0.68285309  0.65338432  1
  C  C558  1  0.05541209  0.65832389  0.57123964  1
  C  C559  1  0.40836996  0.71641538  0.71266584  1
  O  O560  1  0.30293797  0.55224275  0.61104100  1
  N  N561  1  0.46057534  0.55630423  0.68206978  1
  C  C562  1  0.18046470  0.52755629  0.57599191  1
  C  C563  1  0.04747708  0.50912398  0.54659886  1
  Cu  Cu564  1  0.48089968  0.51482130  0.64067864  1
  Cu  Cu565  1  0.07548640  0.73006335  0.69567715  1
  C  C566  1  0.04725864  0.66152879  0.52844412  1
  N  N567  1  0.26082659  0.70903479  0.50712956  1
  C  C568  1  0.43019857  0.59363703  0.73711208  1
  C  C569  1  0.20277621  0.73938928  0.50805973  1
  C  C570  1  0.41383340  0.74554168  0.67771980  1
  H  H571  1  0.10709579  0.66188232  0.51242942  1
  O  O572  1  0.47876786  0.61992350  0.51345324  1
  C  C573  1  0.17342356  0.69129671  0.74865863  1
  C  C574  1  0.49281209  0.58331196  0.70709319  1
  H  H575  1  0.21436887  0.55581381  0.73047615  1
  O  O576  1  0.49338176  0.69199720  0.52797008  1
  H  H577  1  0.14925147  0.72155838  0.57054603  1
  C  C578  1  0.26426440  0.57320964  0.74871053  1
  Cu  Cu579  1  0.32070565  0.50195406  0.65470639  1
  C  C580  1  0.14545813  0.74694134  0.54601243  1
  H  H581  1  0.07811183  0.74784218  0.54003134  1
  N  N582  1  0.38139969  0.74506561  0.57053440  1
  C  C583  1  0.45022695  0.72769663  0.74817311  1
  H  H584  1  0.10110999  0.60366424  0.73897028  1
  C  C585  1  0.29194566  0.90424251  0.65930657  1
  C  C586  1  0.16058896  0.82462611  0.60935002  1
  H  H587  1  0.12148799  0.83154049  0.51972463  1
  N  N588  1  0.48942925  0.78828633  0.51621118  1
  H  H589  1  0.01192664  0.85525151  0.73333209  1
  H  H590  1  0.15160356  0.78131011  0.55785032  1
  Cu  Cu591  1  0.49382267  0.94009976  0.52035550  1
  H  H592  1  0.32891575  0.94693531  0.60673132  1
  H  H593  1  0.41428271  0.82917846  0.56630012  1
  C  C594  1  0.46114220  0.78767311  0.68360768  1
  H  H595  1  0.46398479  0.80947148  0.65783832  1
  H  H596  1  0.27066488  0.83012941  0.52087516  1
  N  N597  1  0.33800063  0.97964051  0.54005668  1
  C  C598  1  0.46707330  0.90829025  0.66463349  1
  C  C599  1  0.01167732  0.99847865  0.63009072  1
  C  C600  1  0.12458679  0.91871105  0.60152904  1
  Cu  Cu601  1  0.39517572  0.75111490  0.51419862  1
  Cu  Cu602  1  0.47552249  0.97366435  0.59345177  1
  C  C603  1  0.39256764  0.76651951  0.60461759  1
  Cu  Cu604  1  0.29764787  0.75976429  0.74680629  1
  C  C605  1  0.34435582  0.92890190  0.63369163  1
  C  C606  1  0.09096311  0.84525977  0.62967401  1
  C  C607  1  0.03433419  0.81424483  0.65256548  1
  H  H608  1  0.29386127  0.86597390  0.71477615  1
  C  C609  1  0.32241296  0.89809879  0.53236608  1
  N  N610  1  0.42843301  0.93558378  0.63760585  1
  C  C611  1  0.42020645  0.88811294  0.69570758  1
  N  N612  1  0.38455325  0.92892759  0.53013344  1
  H  H613  1  0.38289378  0.83805882  0.50533010  1
  H  H614  1  0.17415810  0.78846408  0.61371900  1
  H  H615  1  0.44811944  0.87194137  0.72342745  1
  C  C616  1  0.19111515  0.89872451  0.57668242  1
  H  H617  1  0.22336040  0.89891051  0.65452039  1
  C  C618  1  0.07708923  0.89228317  0.62784053  1
  C  C619  1  0.33387169  0.88429012  0.69277065  1
  C  C620  1  0.42269225  0.81597628  0.59804886  1
  C  C621  1  0.25249282  0.92388105  0.55260152  1
  H  H622  1  0.11362902  0.95577592  0.59747027  1
  H  H623  1  0.26221269  0.83372359  0.57090189  1
  C  C624  1  0.26439730  0.97120076  0.55120170  1
  H  H625  1  0.38870421  0.84029870  0.61710379  1
  C  C626  1  0.32641104  0.85194559  0.52035141  1
  C  C627  1  0.20874879  0.85248973  0.58554917  1
  O  O628  1  0.03999978  0.77021909  0.65309276  1
  O  O629  1  0.08068242  0.77986396  0.73697282  1
  H  H630  1  0.02837547  0.90717898  0.64658200  1
  H  H631  1  0.48847470  0.81907963  0.60538046  1
  C  C632  1  0.00436089  0.98789676  0.70189673  1
  H  H633  1  0.00065231  0.92996784  0.56997607  1
  H  H634  1  0.49590205  0.99939863  0.67919733  1
  H  H635  1  0.03248023  0.98946375  0.73133420  1
  H  H636  1  0.39037280  0.99031361  0.69150930  1
  C  C637  1  0.05424392  0.99724653  0.66828295  1
  C  C638  1  0.26807591  0.60184082  0.91862330  1
  C  C639  1  0.29692699  0.57662996  0.88590675  1
  C  C640  1  0.22100658  0.66475712  0.87299489  1
  C  C641  1  0.23554557  0.64775197  0.91492035  1
  C  C642  1  0.20381984  0.66425613  0.95306377  1
  C  C643  1  0.29025802  0.66691461  0.84542513  1
  C  C644  1  0.15762488  0.70992729  0.95888702  1
  C  C645  1  0.14052909  0.67756411  0.85897618  1
  C  C646  1  0.12753413  0.68515700  0.81736343  1
  H  H647  1  0.08694045  0.67302524  0.88167270  1
  C  C648  1  0.19685859  0.68695484  0.79144119  1
  H  H649  1  0.35477186  0.65992141  0.85704913  1
  C  C650  1  0.27604117  0.67584685  0.80515291  1
  C  C651  1  0.06497937  0.59680620  0.93866200  1
  C  C652  1  0.39780333  0.69460938  0.94514618  1
  H  H653  1  0.06331079  0.69080073  0.80676320  1
  H  H654  1  0.38955859  0.69290327  0.91144397  1
  C  C655  1  0.05292632  0.57309035  0.98148845  1
  H  H656  1  0.30090293  0.59005107  0.85464579  1
  H  H657  1  0.37556828  0.66031677  0.95511097  1
  N  N658  1  0.25994572  0.59147998  0.95757117  1
  N  N659  1  0.21599686  0.63429734  0.98035498  1
  H  H660  1  0.46593907  0.69655903  0.95164324  1
  H  H661  1  0.32965401  0.67615843  0.78264360  1
  C  C662  1  0.34597364  0.73063334  0.96805845  1
  H  H663  1  0.38814825  0.55063266  0.80653589  1
  H  H664  1  0.32398710  0.54225549  0.88991814  1
  H  H665  1  0.02734787  0.63016941  0.93388358  1
  C  C666  1  0.42224497  0.58038728  0.81307016  1
  H  H667  1  0.43339530  0.56321620  0.87495127  1
  C  C668  1  0.44975424  0.58872308  0.85150139  1
  C  C669  1  0.45278602  0.60618543  0.77874394  1
  H  H670  1  0.26522698  0.73958078  0.88948510  1
  H  H671  1  0.44868029  0.70955665  0.77782766  1
  H  H672  1  0.13078327  0.60714584  0.93349321  1
  H  H673  1  0.11902487  0.71798308  0.93021086  1
  H  H674  1  0.20104218  0.73648127  0.96215805  1
  H  H675  1  0.12000433  0.59578256  0.81515576  1
  H  H676  1  0.13601121  0.51433940  0.86535586  1
  C  C677  1  0.06755192  0.57721425  0.79814986  1
  H  H678  1  0.07640318  0.50027952  0.90944091  1
  H  H679  1  0.04752062  0.57104905  0.91451584  1
  H  H680  1  0.11895699  0.70824279  0.98636163  1
  Cu  Cu681  1  0.26885569  0.54137267  0.99025476  1
  H  H682  1  0.27236534  0.55763248  0.77958896  1
  H  H683  1  0.24644955  0.60864276  0.75301760  1
  C  C684  1  0.05664776  0.58433687  0.75680467  1
  H  H685  1  0.02261354  0.54196535  0.85701753  1
  C  C686  1  0.01962933  0.54796063  0.82305787  1
  C  C687  1  0.10470739  0.99196336  0.87303975  1
  H  H688  1  0.49124883  0.81535803  0.96783805  1
  H  H689  1  0.32177621  0.97290266  0.77629975  1
  H  H690  1  0.00209562  0.95175844  0.94875342  1
  H  H691  1  0.30504209  0.75617251  0.82000631  1
  C  C692  1  0.06005276  0.87210161  0.75018412  1
  C  C693  1  0.26915281  0.85338750  0.99680959  1
  C  C694  1  0.05698657  0.91780450  0.76085490  1
  H  H695  1  0.34381007  0.93623712  0.98803228  1
  C  C696  1  0.13020702  0.84764849  0.76427328  1
  H  H697  1  0.04997061  0.97717885  0.89072639  1
  H  H698  1  0.16519801  0.89329004  0.88307798  1
  H  H699  1  0.08940272  0.82766705  0.90749503  1
  C  C700  1  0.14815589  0.91757483  0.98631253  1
  C  C701  1  0.29102615  0.80296831  0.99239564  1
  C  C702  1  0.32318630  0.79890756  0.91848132  1
  O  O703  1  0.35679735  0.81278740  0.76478209  1
  H  H704  1  0.23933334  0.86571099  0.96960703  1
  C  C705  1  0.07959535  0.84979858  0.96911155  1
  C  C706  1  0.19703817  0.91257447  0.79147425  1
  C  C707  1  0.13830878  0.79849860  0.75678461  1
  H  H708  1  0.37924445  0.86826787  0.93164938  1
  C  C709  1  0.14919410  0.89089257  0.91504986  1
  C  C710  1  0.21020159  0.96896099  0.93176972  1
  H  H711  1  0.24333821  0.84584381  0.80055528  1
  C  C712  1  0.49573915  0.94531997  0.97173529  1
  C  C713  1  0.16709921  0.92655807  0.94407294  1
  C  C714  1  0.36002110  0.81974027  0.83589235  1
  C  C715  1  0.37770542  0.85054711  0.86812208  1
  O  O716  1  0.19620052  0.77625944  0.77244815  1
  O  O717  1  0.02112494  0.77986315  0.95135286  1
  H  H718  1  0.40471035  0.88276447  0.85995722  1
  C  C719  1  0.13123736  0.98895007  0.78624795  1
  H  H720  1  0.32492218  0.99829159  0.82777679  1
  C  C721  1  0.10722223  0.85395663  0.92800155  1
  C  C722  1  0.32690333  0.77700658  0.95999037  1
  H  H723  1  0.48714024  0.98291058  0.97070322  1
  C  C724  1  0.49121050  0.85169638  0.97023325  1
  C  C725  1  0.27692803  0.98990873  0.95417214  1
  C  C726  1  0.12541309  0.93927884  0.78004294  1
  C  C727  1  0.36168710  0.84221183  0.90904582  1
  H  H728  1  0.24654621  0.92831344  0.80839040  1
  O  O729  1  0.44059183  0.86526523  0.79305619  1
  H  H730  1  0.12010732  0.96374985  0.84951848  1
  C  C731  1  0.29588295  0.77161238  0.88456825  1
  C  C732  1  0.19605802  0.86753922  0.78751282  1
  C  C733  1  0.02896030  0.81053786  0.98230194  1
  C  C734  1  0.38552018  0.83296337  0.79558838  1
  C  C735  1  0.32134491  0.77983113  0.84446748  1
  C  C736  1  0.32657691  0.97410885  0.99146189  1
  H  H737  1  0.38433300  0.99561622  0.99666322  1
  H  H738  1  0.00088826  0.93707031  0.75091161  1
  Cu  Cu739  1  0.67447171  0.05654402  0.17717291  1
  N  N740  1  0.72493373  0.05951589  0.12671008  1
  C  C741  1  0.72209502  0.13676351  0.10583673  1
  H  H742  1  0.77205244  0.15834533  0.09153195  1
  C  C743  1  0.95078329  0.05029272  0.14606160  1
  C  C744  1  0.73448802  0.08621291  0.09621329  1
  N  N745  1  0.53603717  0.09400857  0.10998799  1
  C  C746  1  0.52838231  0.12250533  0.08104354  1
  H  H747  1  0.71869662  0.14285460  0.13858204  1
  H  H748  1  0.66149183  0.14703937  0.09241570  1
  C  C749  1  0.57070993  0.10877062  0.03977069  1
  Cu  Cu750  1  0.58323144  0.03452155  0.12090690  1
  C  C751  1  0.75714175  0.05851957  0.06173722  1
  H  H752  1  0.94017470  0.16457239  0.14243693  1
  H  H753  1  0.80299316  0.13815847  0.04006305  1
  O  O754  1  0.83532248  0.21060067  0.11448158  1
  H  H755  1  0.63951996  0.10265562  0.04160090  1
  C  C756  1  0.92015892  0.06466802  0.10393132  1
  H  H757  1  0.84860558  0.10526146  0.22890270  1
  H  H758  1  0.61212475  0.21240793  0.06317210  1
  C  C759  1  0.54926192  0.22656852  0.05847603  1
  N  N760  1  0.93922335  0.01135343  0.16208788  1
  H  H761  1  0.90376843  0.10179847  0.10162321  1
  C  C762  1  0.75703192  0.07266022  0.01816135  1
  N  N763  1  0.56873018  0.01664637  0.21084737  1
  H  H764  1  0.95934154  0.05602036  0.07684237  1
  H  H765  1  0.85806747  0.04572723  0.10311863  1
  C  C766  1  0.78438305  0.11749157  0.01230731  1
  H  H767  1  0.63355168  0.03106944  0.03548579  1
  C  C768  1  0.92839499  0.02080941  0.02130915  1
  C  C769  1  0.74742373  0.01055819  0.07079886  1
  N  N770  1  0.72432123  0.00717109  0.10818205  1
  H  H771  1  0.95833206  0.16936680  0.22378695  1
  C  C772  1  0.97827274  0.17621078  0.04247059  1
  H  H773  1  0.54703744  0.07662425  0.02972247  1
  Cu  Cu774  1  0.51266532  0.07232872  0.19981729  1
  H  H775  1  0.56369701  0.17777975  0.00874729  1
  H  H776  1  0.92720809  0.10876049  0.02624661  1
  C  C777  1  0.94785027  0.14301414  0.01459702  1
  H  H778  1  0.87059870  0.23962562  0.04660646  1
  H  H779  1  0.97900010  0.16872355  0.07558598  1
  H  H780  1  0.87194842  0.00601884  0.03294558  1
  H  H781  1  0.99922067  0.23543867  0.15839853  1
  C  C782  1  0.55902033  0.14061626  0.00144437  1
  C  C783  1  0.87302301  0.24180136  0.12784776  1
  C  C784  1  0.99835221  0.16330703  0.15834701  1
  N  N785  1  0.98244720  0.01712803  0.20921749  1
  C  C786  1  0.62958034  0.00185400  0.23232600  1
  C  C787  1  0.58269624  0.01104621  0.01978241  1
  H  H788  1  0.63453192  0.24465190  0.14478111  1
  C  C789  1  0.91713073  0.16562336  0.24936097  1
  H  H790  1  0.85181350  0.32971555  0.24872539  1
  H  H791  1  0.70749518  0.25183949  0.06756286  1
  C  C792  1  0.69155749  0.49627528  0.01430073  1
  H  H793  1  0.96742797  0.49649429  0.18211367  1
  C  C794  1  0.76000367  0.38735937  0.11035484  1
  O  O795  1  0.53231884  0.35610362  0.01015953  1
  C  C796  1  0.96556123  0.42628872  0.22899150  1
  C  C797  1  0.70017625  0.30870903  0.13529023  1
  C  C798  1  0.73390623  0.32917058  0.06095639  1
  C  C799  1  0.74839386  0.27426642  0.00876299  1
  Cu  Cu800  1  0.73492746  0.47588734  0.09909312  1
  C  C801  1  0.90843721  0.26548265  0.05736812  1
  C  C802  1  0.64857130  0.27338139  0.12366779  1
  C  C803  1  0.72510705  0.28048955  0.04794528  1
  H  H804  1  0.76403737  0.39975432  0.04603818  1
  C  C805  1  0.95648014  0.39109560  0.19793065  1
  N  N806  1  0.81480580  0.48267964  0.16841220  1
  C  C807  1  0.50392924  0.40053347  0.16349104  1
  H  H808  1  0.83250939  0.44930694  0.17601959  1
  N  N809  1  0.71097060  0.49427212  0.16838842  1
  C  C810  1  0.75839697  0.36444104  0.03419628  1
  C  C811  1  0.58163672  0.41111691  0.22599409  1
  N  N812  1  0.68493799  0.47828384  0.05079674  1
  H  H813  1  0.59423099  0.28245071  0.02098194  1
  N  N814  1  0.60500545  0.44314616  0.05032236  1
  Cu  Cu815  1  0.58314668  0.41432755  0.09883374  1
  C  C816  1  0.91965833  0.27300696  0.09911868  1
  C  C817  1  0.91728488  0.49205365  0.04594599  1
  N  N818  1  0.69340872  0.41990042  0.11548972  1
  Cu  Cu819  1  0.86743736  0.31866300  0.17429978  1
  H  H820  1  0.71846442  0.32393315  0.20022673  1
  H  H821  1  0.86996088  0.43009424  0.11156696  1
  H  H822  1  0.98735941  0.30382200  0.14997467  1
  C  C823  1  0.95277080  0.29390624  0.03243164  1
  C  C824  1  0.72480075  0.34070011  0.10298143  1
  C  C825  1  0.97225388  0.30483390  0.11662445  1
  Cu  Cu826  1  0.64364466  0.44204258  0.16447411  1
  C  C827  1  0.54238548  0.26680341  0.03790824  1
  H  H828  1  0.93470589  0.45692816  0.04072253  1
  H  H829  1  0.74062255  0.27357690  0.18672927  1
  C  C830  1  0.58799396  0.44020473  0.01243868  1
  N  N831  1  0.74262843  0.30629913  0.17562394  1
  C  C832  1  0.84318093  0.39606663  0.10684268  1
  C  C833  1  0.54989371  0.45519054  0.22994418  1
  H  H834  1  0.57483690  0.34877107  0.18956073  1
  O  O835  1  0.86672261  0.25904413  0.16466935  1
  H  H836  1  0.62296315  0.27198389  0.09282202  1
  H  H837  1  0.88417144  0.36799506  0.09768909  1
  C  C838  1  0.55762182  0.38505490  0.19241043  1
  O  O839  1  0.88255717  0.37577005  0.19347287  1
  H  H840  1  0.85728414  0.49788416  0.02972476  1
  H  H841  1  0.90738622  0.49486294  0.08004374  1
  O  O842  1  0.69469321  0.09213160  0.42910916  1
  Cu  Cu843  1  0.95664802  0.12341504  0.45659231  1
  C  C844  1  0.73554603  0.06115221  0.44289209  1
  N  N845  1  0.92393033  0.05972512  0.38547299  1
  H  H846  1  0.86019222  0.05784351  0.39203594  1
  C  C847  1  0.95656205  0.04407757  0.35106830  1
  C  C848  1  0.92102227  0.19810891  0.28096442  1
  C  C849  1  0.86269919  0.20117832  0.31431052  1
  H  H850  1  0.86401431  0.22896299  0.33482554  1
  H  H851  1  0.76126819  0.16715461  0.34346890  1
  C  C852  1  0.80750232  0.13257620  0.28910057  1
  C  C853  1  0.80589179  0.16746605  0.31891533  1
  O  O854  1  0.70964488  0.09269190  0.32676362  1
  C  C855  1  0.74728732  0.09730433  0.29636162  1
  H  H856  1  0.58484477  0.10180892  0.38705774  1
  H  H857  1  0.57533845  0.12795930  0.32104760  1
  C  C858  1  0.74382733  0.01802235  0.41943106  1
  H  H859  1  0.62187277  0.06143515  0.27574706  1
  O  O860  1  0.77823831  0.06557546  0.47734573  1
  C  C861  1  0.53436321  0.08708639  0.36940833  1
  H  H862  1  0.64364407  0.02883912  0.37746597  1
  N  N863  1  0.53508265  0.03279351  0.49487975  1
  C  C864  1  0.52705996  0.10254306  0.33057755  1
  O  O865  1  0.54247837  0.20872572  0.32370937  1
  C  C866  1  0.60172221  0.23408843  0.33269092  1
  C  C867  1  0.54883201  0.10754803  0.47410860  1
  H  H868  1  0.54853894  0.12912528  0.44591926  1
  C  C869  1  0.67319824  0.03677861  0.26410843  1
  C  C870  1  0.69634865  0.00495780  0.38526181  1
  C  C871  1  0.90017965  0.01424673  0.32421811  1
  H  H872  1  0.90346596  0.02046513  0.29139640  1
  C  C873  1  0.56592663  0.23773131  0.40570536  1
  H  H874  1  0.91029861  0.23079549  0.46369256  1
  H  H875  1  0.50745063  0.21929034  0.39971775  1
  O  O876  1  0.65701580  0.24790687  0.30733213  1
  C  C877  1  0.98149445  0.23688868  0.27865738  1
  O  O878  1  0.73675536  0.06561401  0.25851306  1
  H  H879  1  0.83540900  0.01652388  0.33445716  1
  C  C880  1  0.85610265  0.13231532  0.25280870  1
  H  H881  1  0.50882529  0.12587430  0.49472358  1
  C  C882  1  0.52295230  0.05909678  0.46536949  1
  H  H883  1  0.55235638  0.24166827  0.47264406  1
  C  C884  1  0.61974489  0.24775380  0.37458720  1
  H  H885  1  0.85778660  0.00462586  0.45504556  1
  H  H886  1  0.68989690  0.01529487  0.29089958  1
  H  H887  1  0.61306349  0.10972987  0.48685478  1
  H  H888  1  0.99450691  0.22957530  0.44684378  1
  N  N889  1  0.98795244  0.09897096  0.40416447  1
  C  C890  1  0.90430200  0.22976116  0.49633906  1
  C  C891  1  0.89637709  0.43974278  0.25379088  1
  H  H892  1  0.56070870  0.47240158  0.25786783  1
  C  C893  1  0.69627172  0.34788143  0.49780696  1
  C  C894  1  0.78826346  0.42079287  0.35720450  1
  O  O895  1  0.66981958  0.35366317  0.25009151  1
  H  H896  1  0.96889390  0.41707764  0.33648728  1
  H  H897  1  0.67915271  0.36900905  0.43378260  1
  H  H898  1  0.53990510  0.35454402  0.41901283  1
  Cu  Cu899  1  0.65087198  0.30005186  0.27654971  1
  C  C900  1  0.71548573  0.37963680  0.46190080  1
  O  O901  1  0.66249025  0.41475488  0.28722717  1
  C  C902  1  0.51383415  0.38415879  0.43646330  1
  C  C903  1  0.88817836  0.37162917  0.39257018  1
  C  C904  1  0.58672837  0.25022313  0.44581243  1
  H  H905  1  0.84138994  0.30450387  0.29843519  1
  C  C906  1  0.52877690  0.39299322  0.47604663  1
  C  C907  1  0.63941295  0.39343824  0.25873504  1
  H  H908  1  0.73671329  0.27586099  0.35881365  1
  H  H909  1  0.61844337  0.46639493  0.33311210  1
  C  C910  1  0.69691609  0.26955201  0.38498245  1
  C  C911  1  0.81189263  0.45514153  0.38542249  1
  O  O912  1  0.53275773  0.30878386  0.27092028  1
  C  C913  1  0.62170796  0.48815176  0.35990121  1
  H  H914  1  0.85708742  0.48757307  0.29976038  1
  H  H915  1  0.74632772  0.43014807  0.33181603  1
  H  H916  1  0.61524544  0.46384027  0.38609451  1
  H  H917  1  0.76680228  0.31187607  0.42770738  1
  H  H918  1  0.78009931  0.37914766  0.45415481  1
  O  O919  1  0.91938890  0.29482025  0.37625008  1
  C  C920  1  0.67281378  0.29941951  0.49506804  1
  C  C921  1  0.90620054  0.47596158  0.27897333  1
  C  C922  1  0.85706561  0.29833706  0.26785340  1
  H  H923  1  0.56916800  0.37082941  0.49399253  1
  C  C924  1  0.90124004  0.40389674  0.42321765  1
  H  H925  1  0.81237988  0.34943118  0.34208199  1
  C  C926  1  0.86346993  0.44563112  0.41994681  1
  H  H927  1  0.70216343  0.41695923  0.46973389  1
  H  H928  1  0.95059542  0.40049227  0.44662609  1
  C  C929  1  0.71732770  0.28598389  0.42331260  1
  C  C930  1  0.93366180  0.32794501  0.39471159  1
  C  C931  1  0.65702334  0.27846598  0.45439089  1
  H  H932  1  0.87593692  0.47039144  0.44394036  1
  C  C933  1  0.94780326  0.28144300  0.27225404  1
  C  C934  1  0.82578548  0.37821420  0.36102806  1
  H  H935  1  0.81234869  0.27387652  0.25690531  1
  H  H936  1  0.84204929  0.41808723  0.25559381  1
  C  C937  1  0.64097467  0.17461999  0.62640025  1
  H  H938  1  0.70628091  0.16257353  0.62151207  1
  H  H939  1  0.86879523  0.12536801  0.63975462  1
  C  C940  1  0.87434257  0.10222805  0.61167385  1
  H  H941  1  0.92186935  0.07577163  0.61997383  1
  C  C942  1  0.87432238  0.21307275  0.59361116  1
  C  C943  1  0.58000441  0.15030353  0.60378857  1
  C  C944  1  0.89566125  0.13153094  0.57222631  1
  O  O945  1  0.68601444  0.10545390  0.57387826  1
  H  H946  1  0.81354775  0.08643911  0.60889879  1
  C  C947  1  0.91854633  0.20603156  0.63090156  1
  C  C948  1  0.88781514  0.17871436  0.56176229  1
  C  C949  1  0.61044447  0.11609087  0.57570643  1
  C  C950  1  0.61665787  0.21133876  0.64940793  1
  H  H951  1  0.95221104  0.17283456  0.63429569  1
  N  N952  1  0.90590648  0.11174793  0.53700627  1
  Cu  Cu953  1  0.73340156  0.08207735  0.52488252  1
  C  C954  1  0.89711643  0.19006407  0.51814323  1
  O  O955  1  0.77740884  0.03122543  0.54787749  1
  H  H956  1  0.66797141  0.22654016  0.66574132  1
  O  O957  1  0.55572716  0.09312002  0.55642052  1
  C  C958  1  0.53557846  0.23018927  0.64514139  1
  Cu  Cu959  1  0.56948738  0.02805085  0.55214788  1
  C  C960  1  0.63584970  0.23151832  0.54759641  1
  H  H961  1  0.67533664  0.20544168  0.53476932  1
  O  O962  1  0.73388703  0.01343169  0.60973614  1
  C  C963  1  0.93185357  0.23757322  0.66116912  1
  H  H964  1  0.57251199  0.22245753  0.53630587  1
  H  H965  1  0.63597879  0.23062464  0.58049934  1
  H  H966  1  0.97222712  0.22965580  0.68790076  1
  C  C967  1  0.73996141  0.00377718  0.57412084  1
  N  N968  1  0.91499746  0.15066335  0.50086871  1
  H  H969  1  0.95618708  0.03540698  0.74678114  1
  Cu  Cu970  1  0.91651830  0.05117878  0.51742955  1
  H  H971  1  0.65204455  0.49383888  0.72509105  1
  H  H972  1  0.87677834  0.48922536  0.61132989  1
  C  C973  1  0.72107390  0.49688667  0.71570087  1
  C  C974  1  0.83567028  0.25630708  0.59088609  1
  C  C975  1  0.72183194  0.49057297  0.66713147  1
  H  H976  1  0.94495688  0.45168315  0.64297847  1
  Cu  Cu977  1  0.70891981  0.41042878  0.56891957  1
  H  H978  1  0.73058564  0.27049464  0.64200705  1
  C  C979  1  0.51325394  0.31500832  0.74954888  1
  H  H980  1  0.52350753  0.33426282  0.54450971  1
  C  C981  1  0.84843173  0.32500170  0.64820569  1
  H  H982  1  0.79646112  0.26937351  0.56591932  1
  O  O983  1  0.75024706  0.33239822  0.65923646  1
  N  N984  1  0.86841230  0.40968107  0.57613656  1
  C  C985  1  0.93463516  0.43300022  0.57548890  1
  N  N986  1  0.94899108  0.35744797  0.52191603  1
  O  O987  1  0.62798554  0.38489238  0.73606972  1
  C  C988  1  0.85017589  0.28444122  0.62385553  1
  N  N989  1  0.58706849  0.34138842  0.66396021  1
  C  C990  1  0.70302347  0.29490788  0.66516731  1
  H  H991  1  0.51019759  0.33357780  0.59489727  1
  C  C992  1  0.52684069  0.27698570  0.65891187  1
  C  C993  1  0.60629416  0.29924799  0.66275659  1
  Cu  Cu994  1  0.84873906  0.36057751  0.54795639  1
  N  N995  1  0.67183672  0.31176761  0.56098765  1
  Cu  Cu996  1  0.81686071  0.41494308  0.63065521  1
  H  H997  1  0.70715047  0.27570724  0.69538857  1
  Cu  Cu998  1  0.64083504  0.39700692  0.66013681  1
  O  O999  1  0.76830722  0.47630225  0.74336311  1
  C  C1000  1  0.93603514  0.46651606  0.61201557  1
  N  N1001  1  0.71719141  0.46316375  0.60021507  1
  C  C1002  1  0.89606173  0.28024180  0.65937751  1
  C  C1003  1  0.66165576  0.27925995  0.53352905  1
  N  N1004  1  0.69721385  0.36012744  0.53523323  1
  H  H1005  1  0.52557940  0.32478853  0.71739951  1
  H  H1006  1  0.65536094  0.31446905  0.59007913  1
  H  H1007  1  0.91074940  0.26058431  0.51321016  1
  O  O1008  1  0.87957395  0.36473073  0.64592406  1
  Cu  Cu1009  1  0.55459690  0.42675071  0.72443125  1
  N  N1010  1  0.69636972  0.45463901  0.64895159  1
  H  H1011  1  0.99017725  0.48939651  0.60881528  1
  C  C1012  1  0.50935597  0.43864199  0.53943136  1
  C  C1013  1  0.51857084  0.48199872  0.55969633  1
  H  H1014  1  0.95429261  0.33223446  0.50134706  1
  C  C1015  1  0.76673407  0.11059084  0.94022727  1
  C  C1016  1  0.78672151  0.13828185  0.97396575  1
  C  C1017  1  0.77597772  0.13105734  0.89881835  1
  H  H1018  1  0.63172271  0.20914878  0.85379091  1
  C  C1019  1  0.74417518  0.06524704  0.94491834  1
  H  H1020  1  0.73058695  0.04269233  0.91658758  1
  O  O1021  1  0.74855619  0.11193804  0.87036037  1
  C  C1022  1  0.73772031  0.04678689  0.98268102  1
  H  H1023  1  0.72470247  0.01005555  0.98553642  1
  C  C1024  1  0.59586302  0.21531631  0.88109499  1
  O  O1025  1  0.81273843  0.17135991  0.89750397  1
  H  H1026  1  0.80610558  0.17512896  0.97066275  1
  H  H1027  1  0.61320918  0.13659909  0.97966625  1
  C  C1028  1  0.92249696  0.05162306  0.89097120  1
  Cu  Cu1029  1  0.76074652  0.22598989  0.88405405  1
  C  C1030  1  0.54923097  0.18086289  0.89821011  1
  C  C1031  1  0.93411198  0.04660240  0.98761876  1
  H  H1032  1  0.88079411  0.05592609  0.96900653  1
  H  H1033  1  0.92191925  0.03998036  0.85706056  1
  H  H1034  1  0.86396177  0.07278781  0.89579811  1
  H  H1035  1  0.92152286  0.02288737  0.91303858  1
  H  H1036  1  0.93501119  0.04460945  0.80044802  1
  C  C1037  1  0.96833318  0.02081046  0.77854408  1
  H  H1038  1  0.54763535  0.14614445  0.88355057  1
  H  H1039  1  0.92571473  0.12822285  0.95075414  1
  C  C1040  1  0.94793194  0.15343676  0.97317475  1
  C  C1041  1  0.98144106  0.19560837  0.96073470  1
  C  C1042  1  0.50655339  0.19247151  0.93552699  1
  C  C1043  1  0.99616626  0.08387223  0.89871077  1
  H  H1044  1  0.54867226  0.03231471  0.99706007  1
  H  H1045  1  0.98142387  0.20772638  0.92952734  1
  H  H1046  1  0.75234292  0.23740921  0.99889360  1
  O  O1047  1  0.83542479  0.33000454  0.91886353  1
  H  H1048  1  0.97499291  0.31162009  0.93224291  1
  C  C1049  1  0.65736250  0.29101853  0.88902832  1
  C  C1050  1  0.59668851  0.25767804  0.90231303  1
  C  C1051  1  0.62079242  0.49905697  0.86509948  1
  C  C1052  1  0.62350012  0.36919518  0.77260551  1
  O  O1053  1  0.84357879  0.39342493  0.85961215  1
  O  O1054  1  0.67247563  0.38355392  0.79817423  1
  C  C1055  1  0.62090644  0.44261551  0.91586775  1
  O  O1056  1  0.66895883  0.33034283  0.90367856  1
  C  C1057  1  0.52552857  0.40454264  0.99784669  1
  O  O1058  1  0.70654323  0.27524907  0.86316370  1
  C  C1059  1  0.78622275  0.30874880  0.98355797  1
  C  C1060  1  0.94005369  0.46313294  0.95757836  1
  O  O1061  1  0.81148919  0.25733563  0.93057107  1
  H  H1062  1  0.57051679  0.34306254  0.84368905  1
  H  H1063  1  0.52898672  0.39980611  0.96370414  1
  C  C1064  1  0.55119857  0.27035296  0.93669920  1
  H  H1065  1  0.62048230  0.42694131  0.85213494  1
  C  C1066  1  0.63377233  0.47330253  0.98865237  1
  Cu  Cu1067  1  0.76065707  0.35734955  0.88005953  1
  C  C1068  1  0.91174128  0.43857116  0.92353813  1
  Cu  Cu1069  1  0.73112254  0.43787403  0.78930002  1
  O  O1070  1  0.63641698  0.47199937  0.79484597  1
  C  C1071  1  0.81288063  0.29769285  0.94246450  1
  H  H1072  1  0.91908050  0.40228734  0.92413219  1
  C  C1073  1  0.78119058  0.35490998  0.99541381  1
  C  C1074  1  0.87227905  0.46277130  0.89300477  1
  H  H1075  1  0.62408253  0.40581484  0.92482744  1
  O  O1076  1  0.80504639  0.45726677  0.82979992  1
  H  H1077  1  0.96976418  0.44787154  0.98240261  1
  C  C1078  1  0.83803259  0.43616857  0.85924822  1
  C  C1079  1  0.62417288  0.47894450  0.94385576  1
  C  C1080  1  0.55939285  0.33598905  0.78196130  1
  H  H1081  1  0.56265628  0.30269565  0.95409808  1
  H  H1082  1  0.80914770  0.38125707  0.97682229  1
  C  C1083  1  0.61695594  0.45278901  0.87598873  1
  C  C1084  1  0.53518409  0.32302179  0.82147704  1
  H  H1085  1  0.94498315  0.29085207  0.99910586  1
  C  C1086  1  0.78673772  0.55622921  0.15713159  1
  C  C1087  1  0.80698473  0.60409234  0.16630900  1
  C  C1088  1  0.74266290  0.63199389  0.18456057  1
  H  H1089  1  0.67871006  0.62142413  0.17864750  1
  C  C1090  1  0.76227343  0.67211441  0.20107355  1
  C  C1091  1  0.84804035  0.68454991  0.20418739  1
  H  H1092  1  0.71405433  0.69261023  0.21547366  1
  C  C1093  1  0.62061724  0.55991281  0.14626316  1
  C  C1094  1  0.89335118  0.61664136  0.16765608  1
  C  C1095  1  0.70357195  0.53562242  0.15601773  1
  H  H1096  1  0.59332875  0.57403136  0.17481840  1
  C  C1097  1  0.91225484  0.65507714  0.19046254  1
  H  H1098  1  0.62715237  0.59024741  0.12568559  1
  C  C1099  1  0.70660671  0.62681880  0.05495553  1
  C  C1100  1  0.84868256  0.52118396  0.16023707  1
  H  H1101  1  0.69029147  0.61265641  0.08457315  1
  C  C1102  1  0.78973033  0.62743612  0.04361740  1
  C  C1103  1  0.64458249  0.64451103  0.02569798  1
  H  H1104  1  0.83635225  0.61329394  0.06468931  1
  H  H1105  1  0.57181364  0.53761095  0.13361100  1
  C  C1106  1  0.54098033  0.54653233  0.04317967  1
  C  C1107  1  0.55645666  0.63664024  0.03747663  1
  H  H1108  1  0.94121541  0.59353118  0.15318510  1
  C  C1109  1  0.86595128  0.72615636  0.22503254  1
  C  C1110  1  0.94203229  0.52478002  0.16560222  1
  H  H1111  1  0.79770595  0.59565308  0.23817033  1
  H  H1112  1  0.84503202  0.54250363  0.22287781  1
  C  C1113  1  0.98155306  0.52415490  0.02777685  1
  H  H1114  1  0.96060057  0.55370319  0.18551721  1
  H  H1115  1  0.60597091  0.54366661  0.05385919  1
  H  H1116  1  0.50334526  0.52388918  0.06259113  1
  H  H1117  1  0.97604328  0.66345594  0.19797276  1
  H  H1118  1  0.55138114  0.73942583  0.05054759  1
  C  C1119  1  0.50798975  0.59536793  0.04388898  1
  H  H1120  1  0.98362495  0.64424528  0.09949300  1
  H  H1121  1  0.97577928  0.52719316  0.13447149  1
  H  H1122  1  0.54034148  0.53305691  0.01213314  1
  N  N1123  1  0.51234125  0.59058070  0.22877056  1
  O  O1124  1  0.93803966  0.73730859  0.23627269  1
  C  C1125  1  0.75480594  0.53451591  0.00502564  1
  C  C1126  1  0.51065512  0.72299337  0.02718800  1
  C  C1127  1  0.81019503  0.64587733  0.00432344  1
  H  H1128  1  0.80495842  0.54185284  0.03093934  1
  Cu  Cu1129  1  0.95213687  0.79396721  0.21244296  1
  C  C1130  1  0.98976252  0.98168180  0.07810893  1
  H  H1131  1  0.81867168  0.77525152  0.06630975  1
  C  C1132  1  0.71475359  0.92884984  0.22359701  1
  C  C1133  1  0.55883180  0.88865313  0.17666959  1
  C  C1134  1  0.86406356  0.93857247  0.23532665  1
  O  O1135  1  0.92056233  0.96725827  0.08798535  1
  O  O1136  1  0.96092731  0.84548170  0.18217321  1
  H  H1137  1  0.97657878  0.99430463  0.23209518  1
  C  C1138  1  0.75579039  0.96533181  0.04805420  1
  C  C1139  1  0.80904568  0.87028777  0.19612534  1
  H  H1140  1  0.94870303  0.92036086  0.01799853  1
  C  C1141  1  0.87349774  0.89901898  0.21066963  1
  C  C1142  1  0.67677351  0.84457124  0.01113568  1
  H  H1143  1  0.55678711  0.86031806  0.07960950  1
  H  H1144  1  0.69103278  0.95343103  0.03957299  1
  H  H1145  1  0.59716483  0.88460551  0.14831181  1
  O  O1146  1  0.80524552  0.75063928  0.23550984  1
  C  C1147  1  0.59142901  0.89160326  0.07786057  1
  C  C1148  1  0.51850484  0.98905653  0.05000222  1
  N  N1149  1  0.51693980  0.99939729  0.08756090  1
  H  H1150  1  0.57620359  0.86163939  0.19904719  1
  H  H1151  1  0.79073487  0.97040566  0.01735509  1
  H  H1152  1  0.81611245  0.84067418  0.17686350  1
  C  C1153  1  0.74323258  0.85773884  0.07691275  1
  C  C1154  1  0.82563279  0.86708118  0.09653976  1
  H  H1155  1  0.56020727  0.92022688  0.09471978  1
  Cu  Cu1156  1  0.70271820  0.96627559  0.14945340  1
  C  C1157  1  0.63665427  0.95420601  0.22132979  1
  C  C1158  1  0.57553731  0.93712218  0.19353867  1
  C  C1159  1  0.73368430  0.82722258  0.04197802  1
  H  H1160  1  0.63044177  0.87408103  0.01672646  1
  H  H1161  1  0.95736284  0.86156587  0.10860113  1
  H  H1162  1  0.58473145  0.90210890  0.04502756  1
  N  N1163  1  0.72291700  0.91608744  0.11602068  1
  C  C1164  1  0.68293146  0.88848498  0.09139525  1
  N  N1165  1  0.82040755  0.90451899  0.11656882  1
  N  N1166  1  0.52757635  0.97075622  0.18435436  1
  C  C1167  1  0.72940469  0.88372041  0.20844438  1
  H  H1168  1  0.67720330  0.86303040  0.20160249  1
  H  H1169  1  0.90325386  0.80742048  0.11027384  1
  C  C1170  1  0.90888507  0.83987248  0.09296595  1
  C  C1171  1  0.78273849  0.78722687  0.03947408  1
  H  H1172  1  0.92568715  0.82990511  0.06143172  1
  C  C1173  1  0.95500767  0.88501334  0.19601051  1
  H  H1174  1  0.78690454  0.93860544  0.06802243  1
  C  C1175  1  0.78542601  0.95264685  0.24226990  1
  Cu  Cu1176  1  0.88884061  0.95272007  0.14650833  1
  H  H1177  1  0.81102052  0.87411414  0.00831645  1
  H  H1178  1  0.61433131  0.98553735  0.00256777  1
  C  C1179  1  0.78303689  0.76647432  0.00126180  1
  Cu  Cu1180  1  0.85218488  0.66957061  0.27460617  1
  Cu  Cu1181  1  0.84720406  0.62991654  0.35420343  1
  H  H1182  1  0.65290428  0.62129453  0.39054977  1
  C  C1183  1  0.65851217  0.69588264  0.40119613  1
  C  C1184  1  0.59313788  0.71230012  0.46769137  1
  C  C1185  1  0.63185126  0.65035828  0.40798733  1
  C  C1186  1  0.58421255  0.63491343  0.43974348  1
  C  C1187  1  0.70781508  0.70627434  0.36603983  1
  N  N1188  1  0.70800380  0.55905071  0.35159619  1
  C  C1189  1  0.89665996  0.57442042  0.27849343  1
  N  N1190  1  0.80762847  0.57297195  0.36737132  1
  C  C1191  1  0.71312404  0.67457805  0.32976530  1
  N  N1192  1  0.89682871  0.64099128  0.40306294  1
  C  C1193  1  0.84116168  0.53791620  0.38230651  1
  N  N1194  1  0.78171530  0.68652169  0.31301438  1
  C  C1195  1  0.92981558  0.54182040  0.39886848  1
  C  C1196  1  0.56210589  0.66726901  0.46976705  1
  C  C1197  1  0.70096438  0.51626079  0.36163788  1
  C  C1198  1  0.88960748  0.63640969  0.44217397  1
  N  N1199  1  0.90514137  0.61679944  0.28614171  1
  C  C1200  1  0.65872040  0.63944665  0.31678743  1
  H  H1201  1  0.67179063  0.61799202  0.28913487  1
  N  N1202  1  0.81817498  0.73199646  0.33781423  1
  H  H1203  1  0.60078293  0.63239777  0.33177525  1
  C  C1204  1  0.97032044  0.55114008  0.29246256  1
  H  H1205  1  0.66485860  0.58210428  0.34076363  1
  C  C1206  1  0.64075730  0.72586060  0.43507460  1
  H  H1207  1  0.56472744  0.59777863  0.44170811  1
  C  C1208  1  0.96315828  0.65364002  0.46004536  1
  C  C1209  1  0.81406428  0.60977903  0.46029730  1
  H  H1210  1  0.80845596  0.57553487  0.44666543  1
  H  H1211  1  0.75897618  0.63058740  0.45506210  1
  H  H1212  1  0.77202462  0.54282774  0.26578472  1
  H  H1213  1  0.94398450  0.57435469  0.41253340  1
  H  H1214  1  0.82192963  0.60407952  0.49267394  1
  C  C1215  1  0.76955470  0.74176782  0.36695371  1
  H  H1216  1  0.97217051  0.53469297  0.37249122  1
  H  H1217  1  0.94168622  0.51640501  0.42322116  1
  N  N1218  1  0.98660866  0.61949819  0.31917515  1
  C  C1219  1  0.97893292  0.50488582  0.27577490  1
  H  H1220  1  0.56258024  0.50785445  0.35888278  1
  N  N1221  1  0.98206489  0.67152662  0.39538204  1
  C  C1222  1  0.82428316  0.56220056  0.25089130  1
  C  C1223  1  0.78235043  0.50158437  0.37449311  1
  C  C1224  1  0.52589442  0.55520039  0.25165919  1
  H  H1225  1  0.59553867  0.54807028  0.25114066  1
  H  H1226  1  0.58221243  0.73700356  0.49067310  1
  H  H1227  1  0.92118017  0.95475517  0.25169034  1
  H  H1228  1  0.76911039  0.98398209  0.26035243  1
  Cu  Cu1229  1  0.91883882  0.75249565  0.31685687  1
  H  H1230  1  0.83933474  0.84090832  0.37410632  1
  H  H1231  1  0.90279424  0.93973665  0.41828981  1
  C  C1232  1  0.76973018  0.88141412  0.32141689  1
  C  C1233  1  0.84527089  0.95798899  0.40736904  1
  H  H1234  1  0.91595122  0.97782180  0.32644816  1
  H  H1235  1  0.65259209  0.84127062  0.32144896  1
  C  C1236  1  0.79449259  0.77990988  0.39412351  1
  H  H1237  1  0.66339151  0.76192762  0.43682682  1
  C  C1238  1  0.99479080  0.83266417  0.43635301  1
  C  C1239  1  0.80075474  0.94381684  0.37079765  1
  C  C1240  1  0.90701327  0.84146716  0.42387948  1
  O  O1241  1  0.85758138  0.86431460  0.43954745  1
  N  N1242  1  0.81108767  0.85105412  0.30343541  1
  H  H1243  1  0.66767850  0.90504444  0.47094614  1
  H  H1244  1  0.65343636  0.89256238  0.35409421  1
  H  H1245  1  0.64078782  0.89383608  0.29871076  1
  Cu  Cu1246  1  0.97699091  0.82028711  0.28383799  1
  O  O1247  1  0.87377220  0.81425700  0.38505070  1
  Cu  Cu1248  1  0.80892972  0.79754037  0.27102090  1
  N  N1249  1  0.91497946  0.86386693  0.31117630  1
  C  C1250  1  0.67370922  0.87724082  0.32457831  1
  H  H1251  1  0.74117726  0.80309286  0.40072057  1
  C  C1252  1  0.72208424  0.96731705  0.36250476  1
  H  H1253  1  0.68875124  0.96023638  0.33362047  1
  C  C1254  1  0.91778679  0.89763912  0.33527773  1
  C  C1255  1  0.81841845  0.99534128  0.42970038  1
  H  H1256  1  0.81824142  0.76508921  0.42436124  1
  C  C1257  1  0.83240504  0.91060894  0.34142729  1
  H  H1258  1  0.98018296  0.86245612  0.49755556  1
  H  H1259  1  0.53416519  0.86326806  0.44363821  1
  H  H1260  1  0.99412555  0.94277499  0.37747373  1
  H  H1261  1  0.84733907  0.80825877  0.49483079  1
  H  H1262  1  0.74015473  0.97379722  0.49250382  1
  C  C1263  1  0.52167739  0.82252249  0.49788797  1
  C  C1264  1  0.68418196  0.66203013  0.64208240  1
  C  C1265  1  0.75739751  0.65098967  0.66477725  1
  C  C1266  1  0.78499238  0.60673907  0.66432947  1
  H  H1267  1  0.84239411  0.59985369  0.68109912  1
  H  H1268  1  0.79263176  0.67903173  0.67864683  1
  C  C1269  1  0.66692640  0.58738542  0.61922571  1
  C  C1270  1  0.63932391  0.63094988  0.61750794  1
  C  C1271  1  0.66293711  0.70971826  0.64224065  1
  H  H1272  1  0.58341741  0.64049950  0.60264576  1
  C  C1273  1  0.73872982  0.57416760  0.64223819  1
  H  H1274  1  0.63709798  0.56120865  0.59977895  1
  C  C1275  1  0.58619115  0.59312052  0.70683741  1
  Cu  Cu1276  1  0.54006430  0.71028973  0.57709660  1
  C  C1277  1  0.74530641  0.52422681  0.63581655  1
  H  H1278  1  0.60000212  0.62985785  0.70320619  1
  H  H1279  1  0.74426850  0.53288314  0.72099651  1
  H  H1280  1  0.62292487  0.57427404  0.68367208  1
  C  C1281  1  0.90243596  0.65338604  0.53238631  1
  H  H1282  1  0.83516916  0.64954220  0.52022566  1
  C  C1283  1  0.90360716  0.65656695  0.57426562  1
  H  H1284  1  0.84477471  0.65465898  0.59042992  1
  O  O1285  1  0.59768017  0.72483798  0.62129744  1
  C  C1286  1  0.77783276  0.52610239  0.55681534  1
  O  O1287  1  0.93745216  0.65769234  0.66243766  1
  C  C1288  1  0.51114251  0.65775854  0.50500731  1
  C  C1289  1  0.97325669  0.65974391  0.50546833  1
  H  H1290  1  0.61198705  0.58225100  0.73687087  1
  H  H1291  1  0.78159445  0.56468392  0.55802446  1
  C  C1292  1  0.74600009  0.50351706  0.59640618  1
  O  O1293  1  0.70211183  0.73474548  0.66482710  1
  H  H1294  1  0.73277823  0.51498689  0.53230684  1
  C  C1295  1  0.98122201  0.65954046  0.59344484  1
  H  H1296  1  0.84550324  0.51643749  0.54932603  1
  C  C1297  1  0.53991125  0.52959111  0.54145331  1
  C  C1298  1  0.99331758  0.66513928  0.63923899  1
  C  C1299  1  0.99504765  0.55650480  0.73876300  1
  H  H1300  1  0.97876566  0.55919417  0.70649352  1
  H  H1301  1  0.50305891  0.55953990  0.55306884  1
  H  H1302  1  0.52266739  0.53072710  0.50780215  1
  H  H1303  1  0.60796861  0.53756476  0.54366693  1
  H  H1304  1  0.98801330  0.52176762  0.53458353  1
  C  C1305  1  0.65086189  0.93982285  0.58502896  1
  H  H1306  1  0.91992310  0.76930461  0.54333353  1
  H  H1307  1  0.81466313  0.96309372  0.65773732  1
  C  C1308  1  0.50071689  0.79739830  0.71990809  1
  C  C1309  1  0.66355517  0.91440542  0.50164516  1
  C  C1310  1  0.61936255  0.88737975  0.53124563  1
  C  C1311  1  0.85522336  0.82782708  0.52379196  1
  N  N1312  1  0.88968416  0.79983683  0.55085751  1
  H  H1313  1  0.57810958  0.88251459  0.59698189  1
  H  H1314  1  0.65536051  0.95336885  0.61598145  1
  C  C1315  1  0.91893121  0.97638182  0.69878696  1
  C  C1316  1  0.70396424  0.95342078  0.51395118  1
  C  C1317  1  0.99627640  0.95703511  0.54613071  1
  H  H1318  1  0.87236509  0.87157283  0.63266868  1
  C  C1319  1  0.92760629  0.98067938  0.62346461  1
  H  H1320  1  0.94523956  0.79397106  0.60580521  1
  C  C1321  1  0.86696254  0.85833681  0.60176673  1
  H  H1322  1  0.69088047  0.84173405  0.60252540  1
  H  H1323  1  0.98080431  0.94476008  0.51613852  1
  O  O1324  1  0.80794118  0.95597492  0.73958976  1
  C  C1325  1  0.90112171  0.81617023  0.58850013  1
  H  H1326  1  0.68789178  0.78081608  0.60444872  1
  H  H1327  1  0.53265278  0.90803174  0.66360392  1
  H  H1328  1  0.89105057  0.98460707  0.59440298  1
  C  C1329  1  0.60736162  0.90234874  0.57204624  1
  H  H1330  1  0.74010068  0.80717148  0.56231881  1
  C  C1331  1  0.84013300  0.89018710  0.57209772  1
  C  C1332  1  0.88304554  0.97188490  0.65882133  1
  H  H1333  1  0.81683962  0.92480339  0.58170851  1
  C  C1334  1  0.82926320  0.87315114  0.53317825  1
  C  C1335  1  0.60498393  0.80673060  0.55476856  1
  H  H1336  1  0.53229542  0.82972622  0.72361435  1
  O  O1337  1  0.97984103  0.83206831  0.67101810  1
  C  C1338  1  0.69689080  0.96459898  0.55570384  1
  C  C1339  1  0.87547407  0.97103015  0.73856125  1
  C  C1340  1  0.58798657  0.84064192  0.52431843  1
  C  C1341  1  0.68618882  0.81060844  0.58284536  1
  N  N1342  1  0.55969911  0.77097043  0.55081888  1
  H  H1343  1  0.79387836  0.89235896  0.51070208  1
  O  O1344  1  0.61716475  0.54487835  0.80649733  1
  C  C1345  1  0.61622313  0.53732332  0.89175564  1
  H  H1346  1  0.61511949  0.57017840  0.88057128  1
  C  C1347  1  0.62038403  0.52563454  0.93238538  1
  H  H1348  1  0.62127681  0.55015953  0.95812880  1
  H  H1349  1  0.91262827  0.57217647  0.92105267  1
  H  H1350  1  0.57524273  0.68068275  0.83293779  1
  O  O1351  1  0.57691109  0.67193279  0.90478791  1
  C  C1352  1  0.90925608  0.53515796  0.92140801  1
  H  H1353  1  0.77159085  0.67335570  0.94459551  1
  H  H1354  1  0.62099776  0.68084433  0.96702084  1
  H  H1355  1  0.83476457  0.52774553  0.86819342  1
  C  C1356  1  0.53244491  0.65198818  0.82583415  1
  C  C1357  1  0.94589366  0.51114029  0.95448683  1
  C  C1358  1  0.87244957  0.51005256  0.89015561  1
  C  C1359  1  0.75142376  0.66047148  0.97521425  1
  O  O1360  1  0.91743797  0.66056397  0.95569101  1
  O  O1361  1  0.81891673  0.74629187  0.91881228  1
  C  C1362  1  0.51293736  0.64021409  0.78709056  1
  C  C1363  1  0.53373376  0.64088695  0.89878171  1
  H  H1364  1  0.91906009  0.50672253  0.82226223  1
  C  C1365  1  0.66861822  0.66380811  0.98708511  1
  H  H1366  1  0.54685712  0.65621946  0.76023725  1
  N  N1367  1  0.95727226  0.52743106  0.80505616  1
  H  H1368  1  0.52436410  0.63110807  0.95544061  1
  H  H1369  1  0.54938655  0.72595893  0.99901811  1
  H  H1370  1  0.78555524  0.52382179  0.97706229  1
  C  C1371  1  0.62796421  0.50744086  0.82074441  1
  C  C1372  1  0.50488307  0.62504542  0.85909943  1
  C  C1373  1  0.98878927  0.53823128  0.98569115  1
  H  H1374  1  0.82099761  0.73554709  0.99798737  1
  H  H1375  1  0.72149696  0.56735056  0.99960109  1
  C  C1376  1  0.89547719  0.64340919  0.98687044  1
  O  O1377  1  0.50031422  0.61538891  0.93308066  1
  H  H1378  1  0.95341133  0.62460827  0.99790718  1
  C  C1379  1  0.94609935  0.52811818  0.76409664  1
  H  H1380  1  0.88937299  0.50985276  0.75438227  1
  H  H1381  1  0.91671973  0.94442472  0.88417499  1
  C  C1382  1  0.52394557  0.87409555  0.93515879  1
  O  O1383  1  0.55702793  0.75768493  0.81991206  1
  C  C1384  1  0.51789432  0.92274594  0.93680591  1
  H  H1385  1  0.54210094  0.94053792  0.90941362  1
  C  C1386  1  0.50339285  0.76565035  0.75161150  1
  C  C1387  1  0.68171673  0.82175975  0.97515509  1
  O  O1388  1  0.55863222  0.80757090  0.89762386  1
  C  C1389  1  0.55246771  0.85146192  0.89920705  1
  C  C1390  1  0.91562034  0.91348608  0.98698234  1
  H  H1391  1  0.75609618  0.86363132  0.93261752  1
  C  C1392  1  0.84229437  0.88779407  0.98138901  1
  C  C1393  1  0.90311840  0.92945049  0.91370979  1
  C  C1394  1  0.73986234  0.78597603  0.96825082  1
  C  C1395  1  0.75645137  0.77084294  0.92608335  1
  Cu  Cu1396  1  0.92086310  0.76500750  0.93344017  1
  O  O1397  1  0.57513910  0.87552190  0.86892916  1
  Cu  Cu1398  1  0.63371193  0.77433601  0.86193443  1
  H  H1399  1  0.63904619  0.83397217  0.95099889  1
  C  C1400  1  0.55528338  0.77861370  0.78661935  1
  O  O1401  1  0.71772678  0.79058954  0.89844500  1
  O  O1402  1  0.58690413  0.81770805  0.78410050  1
  C  C1403  1  0.94435714  0.93320385  0.95043551  1
  C  C1404  1  0.80821358  0.88429815  0.94148811  1
  N  N1405  1  0.83084723  0.90763226  0.90977739  1
  O  O1406  1  0.92519312  0.97976829  0.77585194  1
  Cu  Cu1407  1  0.54608512  0.86149158  0.81762218  1
