# generated using pymatgen
data_CuH6C13N3O4
_symmetry_space_group_name_H-M   'P 1'
_cell_length_a   15.35440056
_cell_length_b   25.36871950
_cell_length_c   30.52987775
_cell_angle_alpha   90.00000000
_cell_angle_beta   90.00000000
_cell_angle_gamma   90.00000000
_symmetry_Int_Tables_number   1
_chemical_formula_structural   CuH6C13N3O4
_chemical_formula_sum   'Cu32 H192 C416 N96 O128'
_cell_volume   11892.04319956
_cell_formula_units_Z   32
loop_
 _symmetry_equiv_pos_site_id
 _symmetry_equiv_pos_as_xyz
  1  'x, y, z'
loop_
 _atom_site_type_symbol
 _atom_site_label
 _atom_site_symmetry_multiplicity
 _atom_site_fract_x
 _atom_site_fract_y
 _atom_site_fract_z
 _atom_site_occupancy
  N  N0  1  0.34417718  0.11809171  0.06419142  1
  C  C1  1  0.21080292  0.08057721  0.09050460  1
  C  C2  1  0.26399386  0.10788190  0.05714736  1
  H  H3  1  0.23477864  0.06567780  0.12386675  1
  C  C4  1  0.21138669  0.20292797  0.13976268  1
  H  H5  1  0.23144970  0.18294341  0.17129803  1
  O  O6  1  0.08607170  0.15434375  0.19314829  1
  C  C7  1  0.07124611  0.05591884  0.11583349  1
  N  N8  1  0.13002895  0.07641095  0.08625897  1
  C  C9  1  0.12706818  0.20376637  0.12595906  1
  C  C10  1  0.36499449  0.21382626  0.12467359  1
  C  C11  1  0.08441822  0.04790447  0.16157169  1
  H  H12  1  0.08741868  0.13491160  0.03658498  1
  C  C13  1  0.27548214  0.22509361  0.11144852  1
  C  C14  1  0.06166591  0.17453580  0.15433242  1
  O  O15  1  0.38295473  0.18517289  0.15820462  1
  H  H16  1  0.14609486  0.05409956  0.17759608  1
  Cu  Cu17  1  0.43224106  0.19418527  0.21531569  1
  N  N18  1  0.39578741  0.15425902  0.02573165  1
  N  N19  1  0.47419887  0.15033612  0.03372971  1
  C  C20  1  0.01152300  0.03296753  0.18556947  1
  C  C21  1  0.22057636  0.12296080  0.01348929  1
  N  N22  1  0.34343736  0.24334551  0.24911990  1
  C  C23  1  0.42325509  0.47481864  0.06876727  1
  C  C24  1  0.01487934  0.02638905  0.23375142  1
  C  C25  1  0.13315377  0.14036280  0.00821104  1
  O  O26  1  0.41751551  0.24008970  0.10285796  1
  C  C27  1  0.10504926  0.22950235  0.08687698  1
  H  H28  1  0.04171679  0.22298250  0.07336601  1
  N  N29  1  0.15304150  0.28484814  0.02463878  1
  C  C30  1  0.39287999  0.43359211  0.09476708  1
  O  O31  1  0.45306681  0.42385235  0.22765830  1
  H  H32  1  0.44377136  0.26570942  0.03820295  1
  O  O33  1  0.32932403  0.34956447  0.09652016  1
  C  C34  1  0.16844434  0.25565697  0.06125954  1
  H  H35  1  0.30625233  0.26506702  0.05147105  1
  C  C36  1  0.44260451  0.28362056  0.00618491  1
  Cu  Cu37  1  0.42617197  0.31210349  0.11118431  1
  N  N38  1  0.07890398  0.39796633  0.01924744  1
  C  C39  1  0.15980459  0.47022159  0.08793879  1
  C  C40  1  0.34340417  0.39267554  0.07205162  1
  H  H41  1  0.04416995  0.29498021  0.05541640  1
  N  N42  1  0.33990840  0.28775192  0.23542845  1
  C  C43  1  0.41290507  0.42629111  0.13931188  1
  O  O44  1  0.34025189  0.39172917  0.03374822  1
  C  C45  1  0.25662162  0.24951821  0.07199723  1
  H  H46  1  0.18682789  0.43612238  0.02652683  1
  C  C47  1  0.47662352  0.45839716  0.15696176  1
  C  C48  1  0.19948845  0.46924924  0.04815102  1
  H  H49  1  0.38251262  0.39427436  0.15673878  1
  C  C50  1  0.10020540  0.42539982  0.09826036  1
  H  H51  1  0.40577867  0.47917867  0.03483096  1
  O  O52  1  0.06419255  0.43160312  0.13357849  1
  O  O53  1  0.09196730  0.38471253  0.07446851  1
  C  C54  1  0.07177497  0.30019709  0.02155639  1
  C  C55  1  0.49706036  0.45142204  0.20518663  1
  Cu  Cu56  1  0.02779379  0.14029909  0.24249453  1
  C  C57  1  0.15401340  0.13802806  0.39822355  1
  C  C58  1  0.25965024  0.13835767  0.47235089  1
  C  C59  1  0.18618331  0.10551859  0.47216310  1
  C  C60  1  0.13174406  0.10781335  0.43539949  1
  O  O61  1  0.36073488  0.16349017  0.30450972  1
  C  C62  1  0.22845594  0.16922475  0.40091137  1
  H  H63  1  0.40606090  0.10395957  0.37294124  1
  N  N64  1  0.11779063  0.18686026  0.26993797  1
  C  C65  1  0.28502043  0.16947944  0.43675846  1
  C  C66  1  0.05576373  0.07135996  0.43441749  1
  H  H67  1  0.11308753  0.13893953  0.36905365  1
  N  N68  1  0.18678779  0.16846319  0.27777558  1
  N  N69  1  0.25021465  0.21524068  0.37299773  1
  N  N70  1  0.07743564  0.02306792  0.36154029  1
  O  O71  1  0.04164390  0.04927569  0.47074561  1
  N  N72  1  0.03879905  0.01276603  0.32825488  1
  H  H73  1  0.34725229  0.19236192  0.43780539  1
  Cu  Cu74  1  0.27265157  0.22289531  0.30361097  1
  C  C75  1  0.44089784  0.16566143  0.29871554  1
  O  O76  1  0.42260816  0.03635645  0.43055736  1
  O  O77  1  0.01594448  0.06223382  0.39910978  1
  H  H78  1  0.30917635  0.23098104  0.38221572  1
  C  C79  1  0.47564213  0.10773613  0.36395145  1
  N  N80  1  0.46521399  0.25821394  0.44869712  1
  H  H81  1  0.17156823  0.07778099  0.49986076  1
  H  H82  1  0.00086957  0.37583043  0.36599680  1
  C  C83  1  0.00014354  0.31533655  0.48368623  1
  C  C84  1  0.18183879  0.25169846  0.37888576  1
  H  H85  1  0.37507641  0.46810897  0.37336037  1
  H  H86  1  0.46594381  0.49703890  0.43936542  1
  H  H87  1  0.39881883  0.37818990  0.33983250  1
  N  N88  1  0.28315842  0.37493970  0.45852882  1
  C  C89  1  0.00219774  0.35601548  0.39815378  1
  C  C90  1  0.20145301  0.45036691  0.36568971  1
  H  H91  1  0.20518785  0.46396186  0.43584536  1
  C  C92  1  0.27517581  0.35182132  0.38415116  1
  C  C93  1  0.05609226  0.31424764  0.41063866  1
  H  H94  1  0.29704993  0.31045640  0.39082599  1
  C  C95  1  0.43673602  0.39055446  0.36946922  1
  O  O96  1  0.31187856  0.28537093  0.32324141  1
  H  H97  1  0.04545551  0.47322719  0.42544592  1
  C  C98  1  0.33942002  0.33900308  0.45781651  1
  H  H99  1  0.09987411  0.25997901  0.46102859  1
  H  H100  1  0.20523176  0.42645642  0.29943633  1
  C  C101  1  0.42303438  0.44020670  0.39027581  1
  C  C102  1  0.05860453  0.29326370  0.45352351  1
  C  C103  1  0.25956060  0.38887014  0.41784614  1
  O  O104  1  0.27416799  0.33403583  0.26668915  1
  H  H105  1  0.36949493  0.33336903  0.42659327  1
  C  C106  1  0.25765720  0.36693572  0.34024288  1
  C  C107  1  0.12373461  0.28256634  0.38686504  1
  C  C108  1  0.21736696  0.41499152  0.33155834  1
  C  C109  1  0.27906316  0.32785514  0.30706399  1
  N  N110  1  0.41947492  0.26156814  0.41557350  1
  C  C111  1  0.22034671  0.43824049  0.40855819  1
  C  C112  1  0.49828539  0.04691787  0.42809395  1
  O  O113  1  0.47358180  0.19547575  0.27036301  1
  O  O114  1  0.13236451  0.45467292  0.49394581  1
  C  C115  1  0.47794645  0.45753000  0.42423487  1
  C  C116  1  0.35241862  0.30698211  0.49732374  1
  N  N117  1  0.40726010  0.26744375  0.49758306  1
  N  N118  1  0.48810666  0.26439146  0.37311764  1
  O  O119  1  0.09188206  0.02234950  0.25135470  1
  C  C120  1  0.07457736  0.23412019  0.66749149  1
  C  C121  1  0.09650765  0.18667436  0.68478919  1
  C  C122  1  0.09066990  0.13994436  0.66105225  1
  C  C123  1  0.07213946  0.14336769  0.61648014  1
  C  C124  1  0.05481311  0.19022905  0.59318329  1
  C  C125  1  0.07037851  0.09130794  0.59471387  1
  H  H126  1  0.10393209  0.10141599  0.67611256  1
  C  C127  1  0.05410183  0.23480085  0.62125275  1
  O  O128  1  0.28395764  0.12320715  0.54739792  1
  O  O129  1  0.06973624  0.04965156  0.61686080  1
  C  C130  1  0.11351546  0.18765010  0.73325812  1
  O  O131  1  0.06720106  0.09227740  0.55335042  1
  C  C132  1  0.30747497  0.14362611  0.51450403  1
  O  O133  1  0.37852821  0.17269055  0.51011628  1
  H  H134  1  0.45723969  0.01827334  0.68206213  1
  H  H135  1  0.03149400  0.19204225  0.55913158  1
  Cu  Cu136  1  0.44523126  0.21684041  0.54357140  1
  O  O137  1  0.40847360  0.02236996  0.59883741  1
  H  H138  1  0.20351309  0.49005132  0.57697744  1
  H  H139  1  0.06430719  0.27019825  0.68745137  1
  C  C140  1  0.06385032  0.45673794  0.51321001  1
  C  C141  1  0.30984050  0.32438796  0.54023929  1
  O  O142  1  0.47045313  0.16564377  0.74350034  1
  N  N143  1  0.02662330  0.28341148  0.61090027  1
  H  H144  1  0.20687875  0.44977775  0.72383647  1
  C  C145  1  0.32108447  0.49485533  0.70615332  1
  C  C146  1  0.27648999  0.36475908  0.62018212  1
  C  C147  1  0.46444611  0.26038393  0.73683381  1
  C  C148  1  0.46081507  0.35114328  0.72528909  1
  C  C149  1  0.22975648  0.31939607  0.60816501  1
  C  C150  1  0.48248085  0.30203989  0.70834793  1
  N  N151  1  0.45983600  0.44908575  0.57636604  1
  C  C152  1  0.01290259  0.28860691  0.56938202  1
  H  H153  1  0.19650605  0.26861666  0.55087527  1
  N  N154  1  0.32978735  0.46281115  0.67048422  1
  C  C155  1  0.33470980  0.39333175  0.59230914  1
  H  H156  1  0.39748515  0.39203113  0.52996081  1
  C  C157  1  0.00599971  0.29990814  0.53043769  1
  O  O158  1  0.05346301  0.44913457  0.55221687  1
  C  C159  1  0.38635658  0.47333178  0.64133218  1
  H  H160  1  0.26530578  0.38651332  0.65086662  1
  C  C161  1  0.39548223  0.43946691  0.60340164  1
  H  H162  1  0.17757431  0.30318385  0.62824196  1
  C  C163  1  0.24779268  0.48537906  0.73323486  1
  C  C164  1  0.24180353  0.29885821  0.56584676  1
  C  C165  1  0.35410260  0.37161025  0.55166587  1
  O  O166  1  0.02000121  0.37499708  0.69652542  1
  C  C167  1  0.48313632  0.20758340  0.72064967  1
  N  N168  1  0.28330471  0.17179739  0.86166137  1
  C  C169  1  0.15708415  0.16449493  0.93113189  1
  C  C170  1  0.24076259  0.14146464  0.93483593  1
  C  C171  1  0.29787768  0.13960181  0.89675886  1
  C  C172  1  0.37638602  0.10606314  0.89501576  1
  N  N173  1  0.30817127  0.18587995  0.82499655  1
  Cu  Cu174  1  0.05803593  0.22392267  0.80324135  1
  C  C175  1  0.40330150  0.06400299  0.92975003  1
  H  H176  1  0.33741880  0.10610324  0.97898203  1
  H  H177  1  0.13299874  0.18139994  0.90105385  1
  N  N178  1  0.43041468  0.10521374  0.86249016  1
  H  H179  1  0.41961083  0.13912652  0.84493541  1
  C  C180  1  0.27258560  0.12023665  0.97699954  1
  C  C181  1  0.10236381  0.15745341  0.96817157  1
  C  C182  1  0.41777210  0.35972503  0.76428076  1
  H  H183  1  0.41418018  0.22944649  0.79735560  1
  C  C184  1  0.47598873  0.06974546  0.95761140  1
  O  O185  1  0.10047594  0.23388639  0.75298381  1
  H  H186  1  0.36230756  0.22400991  0.98275559  1
  C  C187  1  0.48639253  0.03299307  0.99027244  1
  H  H188  1  0.03249550  0.16851763  0.96720531  1
  C  C189  1  0.48530057  0.34685048  0.95255583  1
  C  C190  1  0.27841169  0.32846978  0.84871758  1
  O  O191  1  0.02424255  0.20889192  0.85424581  1
  H  H192  1  0.36853748  0.24787867  0.89932989  1
  Cu  Cu193  1  0.24076608  0.23510673  0.79266813  1
  H  H194  1  0.04699603  0.37313875  0.82210524  1
  C  C195  1  0.04433074  0.36957637  0.85753782  1
  O  O196  1  0.09960290  0.46439593  0.77379665  1
  C  C197  1  0.17561362  0.30295748  0.85084458  1
  C  C198  1  0.39511235  0.25932592  0.97047746  1
  N  N199  1  0.32109490  0.31636895  0.81943716  1
  C  C200  1  0.15193111  0.49563273  0.79778694  1
  C  C201  1  0.26838500  0.47650987  0.96952053  1
  C  C202  1  0.42373683  0.48479710  0.89408175  1
  H  H203  1  0.18550151  0.31688169  0.93932612  1
  C  C204  1  0.43240184  0.46149125  0.85044284  1
  H  H205  1  0.37798648  0.43920902  0.83803843  1
  C  C206  1  0.40068252  0.27208095  0.92458261  1
  C  C207  1  0.38390609  0.31325944  0.78818293  1
  H  H208  1  0.20602569  0.45698801  0.97879595  1
  C  C209  1  0.34833765  0.47479871  0.92043309  1
  C  C210  1  0.45957485  0.31447580  0.91450367  1
  C  C211  1  0.06104718  0.35968919  0.94613597  1
  H  H212  1  0.40139391  0.40056976  0.77609263  1
  H  H213  1  0.30190379  0.36333300  0.86604374  1
  N  N214  1  0.15842482  0.26864286  0.82730395  1
  N  N215  1  0.28029468  0.45334670  0.92973931  1
  C  C216  1  0.41913390  0.26347843  0.77661405  1
  C  C217  1  0.11203549  0.33620542  0.87788535  1
  C  C218  1  0.12973832  0.33571930  0.92279306  1
  H  H219  1  0.29469787  0.01661149  0.90368274  1
  C  C220  1  0.34541614  0.02158411  0.92964151  1
  O  O221  1  0.01251850  0.26272335  0.99300924  1
  C  C222  1  0.07321175  0.36182638  0.99721078  1
  C  C223  1  0.48728315  0.33131235  0.99726765  1
  O  O224  1  0.13305765  0.14870155  0.75301843  1
  H  H225  1  0.31457250  0.58901320  0.05059100  1
  C  C226  1  0.22497124  0.55962972  0.09989013  1
  O  O227  1  0.26972354  0.64150046  0.11975224  1
  C  C228  1  0.22581125  0.60551509  0.13098504  1
  O  O229  1  0.17661138  0.60520882  0.16555956  1
  C  C230  1  0.26982608  0.55717858  0.06046909  1
  H  H231  1  0.13728082  0.52005071  0.14312650  1
  C  C232  1  0.17544412  0.51676771  0.11283454  1
  Cu  Cu233  1  0.08668588  0.64551122  0.17177932  1
  H  H234  1  0.25143325  0.70114065  0.19423770  1
  C  C235  1  0.25436639  0.51235633  0.03467213  1
  H  H236  1  0.33019454  0.73262172  0.13043370  1
  C  C237  1  0.22701628  0.73587591  0.17638054  1
  C  C238  1  0.05401942  0.84389783  0.17844160  1
  C  C239  1  0.48300762  0.50880004  0.09062110  1
  C  C240  1  0.34555553  0.83283250  0.09571875  1
  C  C241  1  0.47609205  0.56368316  0.03617683  1
  C  C242  1  0.13857588  0.81552080  0.16795298  1
  N  N243  1  0.01031667  0.67306096  0.03484885  1
  H  H244  1  0.41713924  0.54004166  0.02617749  1
  N  N245  1  0.48088623  0.89107157  0.08635831  1
  H  H246  1  0.11457978  0.75508119  0.21706004  1
  C  C247  1  0.27932201  0.75803516  0.14300260  1
  C  C248  1  0.15590627  0.76698745  0.18858393  1
  C  C249  1  0.19142025  0.83600233  0.13361361  1
  N  N250  1  0.30635250  0.77760628  0.03090694  1
  H  H251  1  0.43081734  0.95862222  0.01979677  1
  C  C252  1  0.34839436  0.81579749  0.04958914  1
  O  O253  1  0.00083718  0.58915453  0.19516581  1
  C  C254  1  0.26823590  0.80813952  0.12391212  1
  N  N255  1  0.21221368  0.93667130  0.24459291  1
  N  N256  1  0.40217487  0.85899592  0.11673896  1
  H  H257  1  0.39335393  0.82982889  0.02364450  1
  H  H258  1  0.17593570  0.87432555  0.11865806  1
  N  N259  1  0.02124548  0.67163354  0.07424212  1
  O  O260  1  0.01422037  0.72986692  0.11069142  1
  O  O261  1  0.41614645  0.65019046  0.24733457  1
  N  N262  1  0.48532129  0.60080516  0.00011083  1
  C  C263  1  0.36719669  0.65458774  0.31895367  1
  H  H264  1  0.41553170  0.60052800  0.36863663  1
  C  C265  1  0.36745883  0.63184114  0.35888698  1
  C  C266  1  0.30139171  0.64852563  0.38880830  1
  N  N267  1  0.29345274  0.62789650  0.43006789  1
  H  H268  1  0.42199020  0.62880970  0.42100251  1
  C  C269  1  0.36988183  0.61546357  0.44404412  1
  C  C270  1  0.24121870  0.68981089  0.37894711  1
  C  C271  1  0.31052845  0.69542035  0.30680436  1
  C  C272  1  0.11573362  0.63288434  0.46313781  1
  H  H273  1  0.12139520  0.60364271  0.39732410  1
  C  C274  1  0.08394918  0.63020451  0.41855628  1
  C  C275  1  0.25099662  0.71145730  0.33812801  1
  C  C276  1  0.42973168  0.63341127  0.28428175  1
  H  H277  1  0.19107455  0.70027368  0.40319710  1
  C  C278  1  0.39036083  0.59223306  0.48640805  1
  O  O279  1  0.15919480  0.53626115  0.38871768  1
  H  H280  1  0.17164272  0.61023998  0.47349635  1
  N  N281  1  0.47385927  0.58180151  0.48973428  1
  H  H282  1  0.30855876  0.71251483  0.27389693  1
  C  C283  1  0.07487079  0.67355518  0.48990701  1
  H  H284  1  0.41303186  0.76494240  0.38001221  1
  C  C285  1  0.00531078  0.70594677  0.47414680  1
  O  O286  1  0.03711252  0.57286174  0.26513995  1
  Cu  Cu287  1  0.01680907  0.52820208  0.30633618  1
  O  O288  1  0.13398515  0.51652274  0.32068848  1
  C  C289  1  0.16075454  0.50369699  0.35904958  1
  C  C290  1  0.01950011  0.66415519  0.40132359  1
  C  C291  1  0.42174721  0.74152467  0.48872090  1
  Cu  Cu292  1  0.11478504  0.96622103  0.28605637  1
  C  C293  1  0.06188151  0.88376926  0.34018573  1
  O  O294  1  0.25068553  0.78310415  0.47318489  1
  O  O295  1  0.27479537  0.79673983  0.40417307  1
  O  O296  1  0.12329065  0.90314379  0.31863541  1
  C  C297  1  0.44393643  0.75512456  0.41197178  1
  C  C298  1  0.38936896  0.75816647  0.44917912  1
  C  C299  1  0.29880066  0.77894295  0.44307775  1
  O  O300  1  0.14563368  0.77452454  0.35560369  1
  Cu  Cu301  1  0.17645267  0.83206417  0.38937768  1
  O  O302  1  0.17935864  0.76260945  0.28440637  1
  O  O303  1  0.07131412  0.86668950  0.37784089  1
  C  C304  1  0.18520993  0.75268307  0.32245817  1
  O  O305  1  0.49174466  0.60119108  0.28986506  1
  H  H306  1  0.00826430  0.66091033  0.36532436  1
  N  N307  1  0.28322228  0.93585394  0.25562234  1
  H  H308  1  0.04010856  0.88911436  0.25787407  1
  C  C309  1  0.33371934  0.59359229  0.60729505  1
  C  C310  1  0.35698345  0.61785052  0.65244367  1
  C  C311  1  0.27086846  0.55161768  0.61035158  1
  C  C312  1  0.34024163  0.58208480  0.52978125  1
  C  C313  1  0.36841235  0.61228536  0.56664302  1
  H  H314  1  0.41961744  0.64255316  0.56613796  1
  N  N315  1  0.43271085  0.63660985  0.65949367  1
  H  H316  1  0.21576109  0.61065590  0.67929640  1
  C  C317  1  0.28302984  0.62491052  0.68195038  1
  H  H318  1  0.23759966  0.54395590  0.64171136  1
  C  C319  1  0.25274540  0.52138592  0.57232452  1
  C  C320  1  0.28087981  0.53886007  0.53180396  1
  C  C321  1  0.11044637  0.67874364  0.53572492  1
  N  N322  1  0.28168470  0.65622607  0.71583565  1
  H  H323  1  0.43976557  0.54521217  0.70145578  1
  H  H324  1  0.14448301  0.58178164  0.72017635  1
  H  H325  1  0.31815724  0.70475962  0.64691602  1
  N  N326  1  0.10437034  0.63385717  0.56018958  1
  O  O327  1  0.09990916  0.58463167  0.63092012  1
  N  N328  1  0.09564027  0.58884065  0.57379192  1
  C  C329  1  0.07619052  0.53817416  0.64156613  1
  N  N330  1  0.18387360  0.72239747  0.59314545  1
  C  C331  1  0.38328647  0.53247538  0.72155575  1
  C  C332  1  0.15024190  0.72403852  0.55419776  1
  Cu  Cu333  1  0.47669526  0.67155502  0.71573974  1
  O  O334  1  0.44787360  0.73644321  0.68677815  1
  O  O335  1  0.39745026  0.78127940  0.74183451  1
  O  O336  1  0.02154999  0.54869450  0.74035114  1
  H  H337  1  0.29599498  0.85262217  0.71032163  1
  C  C338  1  0.27203440  0.82845713  0.68329290  1
  C  C339  1  0.14172184  0.61954489  0.73895750  1
  C  C340  1  0.17460833  0.89966487  0.65150537  1
  C  C341  1  0.28651186  0.74414508  0.64688013  1
  O  O342  1  0.45641957  0.96314907  0.55308624  1
  C  C343  1  0.39241939  0.76674392  0.70337111  1
  H  H344  1  0.38168402  0.73849034  0.51846960  1
  C  C345  1  0.18522891  0.81382110  0.61813781  1
  C  C346  1  0.45442145  0.98536428  0.59215642  1
  C  C347  1  0.21122884  0.84571296  0.65146790  1
  O  O348  1  0.19061523  0.93149591  0.67898326  1
  Cu  Cu349  1  0.07807214  0.97690203  0.60865445  1
  C  C350  1  0.31334941  0.78158771  0.67647543  1
  C  C351  1  0.21986036  0.76132337  0.61786569  1
  O  O352  1  0.12762812  0.50217961  0.64751662  1
  O  O353  1  0.12632225  0.91140433  0.61671307  1
  H  H354  1  0.14252440  0.82676032  0.59191179  1
  H  H355  1  0.16245248  0.76029420  0.53626224  1
  C  C356  1  0.20995904  0.65687718  0.74162100  1
  H  H357  1  0.26637574  0.51786832  0.50018528  1
  H  H358  1  0.00974943  0.80943859  0.61737674  1
  O  O359  1  0.02274848  0.95492431  0.55614385  1
  H  H360  1  0.42846860  0.50704012  0.64872632  1
  O  O361  1  0.48918628  0.61034314  0.74666380  1
  C  C362  1  0.14096146  0.71026025  0.79395417  1
  C  C363  1  0.07231412  0.67445758  0.79499056  1
  O  O364  1  0.12995004  0.68591583  0.91978596  1
  C  C365  1  0.28118988  0.70949280  0.93145501  1
  C  C366  1  0.20917237  0.67195708  0.91215015  1
  O  O367  1  0.22898848  0.64130616  0.88455709  1
  H  H368  1  0.37558455  0.69725468  0.87595749  1
  H  H369  1  0.28422781  0.56421824  0.82208156  1
  O  O370  1  0.42381784  0.62047055  0.80823271  1
  C  C371  1  0.07358805  0.63006184  0.76772711  1
  C  C372  1  0.20969656  0.70462624  0.76762875  1
  C  C373  1  0.43100027  0.59501994  0.77648564  1
  C  C374  1  0.29641439  0.54381063  0.79086954  1
  C  C375  1  0.35786279  0.71914021  0.90682512  1
  H  H376  1  0.26410854  0.73329059  0.76360504  1
  C  C377  1  0.36846688  0.55180377  0.76360715  1
  Cu  Cu378  1  0.08679649  0.75560793  0.91651514  1
  O  O379  1  0.07561273  0.75553492  0.85360329  1
  C  C380  1  0.25962214  0.73352983  0.97001221  1
  H  H381  1  0.20135383  0.72278112  0.98901724  1
  O  O382  1  0.13471528  0.50804967  0.83411864  1
  C  C383  1  0.00397648  0.58905688  0.76377919  1
  C  C384  1  0.13571159  0.75881504  0.82448356  1
  C  C385  1  0.29153440  0.93989148  0.96473600  1
  C  C386  1  0.41301542  0.75615977  0.92434612  1
  O  O387  1  0.01404823  0.77997887  0.96025752  1
  C  C388  1  0.40039901  0.78326899  0.96437300  1
  O  O389  1  0.19231859  0.79039043  0.82726234  1
  O  O390  1  0.23631605  0.93491008  0.93622721  1
  C  C391  1  0.36038396  0.98601710  0.96399103  1
  H  H392  1  0.01673471  0.68079419  0.81731374  1
  O  O393  1  0.29352453  0.91419385  0.99750657  1
  H  H394  1  0.48097557  0.54061837  0.94199105  1
  Cu  Cu395  1  0.49816152  0.79428425  0.77422196  1
  C  C396  1  0.32597648  0.76689344  0.98778695  1
  C  C397  1  0.42375193  0.99102237  0.99487981  1
  C  C398  1  0.49380713  0.51906980  0.91087712  1
  N  N399  1  0.29789571  0.51002653  0.99756767  1
  C  C400  1  0.23423142  0.51048304  0.77321837  1
  H  H401  1  0.44629513  0.81235182  0.97480005  1
  H  H402  1  0.57937910  0.19724353  0.11862095  1
  O  O403  1  0.83386069  0.05277974  0.06099767  1
  C  C404  1  0.91905958  0.03765160  0.12081237  1
  Cu  Cu405  1  0.73599216  0.06580124  0.02590621  1
  C  C406  1  0.60124364  0.22071990  0.04097276  1
  C  C407  1  0.92849098  0.02774010  0.16587071  1
  O  O408  1  0.54975706  0.17133233  0.19509292  1
  C  C409  1  0.62450721  0.19212458  0.20390354  1
  H  H410  1  0.55492776  0.21920518  0.06784397  1
  C  C411  1  0.56182991  0.03453612  0.01799442  1
  C  C412  1  0.63885029  0.21970912  0.12385143  1
  H  H413  1  0.78642138  0.17938777  0.01581269  1
  H  H414  1  0.87476086  0.02144790  0.18657495  1
  Cu  Cu415  1  0.66417397  0.00867888  0.08875533  1
  C  C416  1  0.83469102  0.03589173  0.09965057  1
  O  O417  1  0.76547876  0.02466878  0.12052571  1
  C  C418  1  0.66985980  0.21910615  0.16580660  1
  H  H419  1  0.97865113  0.06326928  0.06064259  1
  O  O420  1  0.56607202  0.00713792  0.05248154  1
  O  O421  1  0.98984967  0.18050646  0.14274552  1
  C  C422  1  0.98839736  0.05148597  0.09476327  1
  O  O423  1  0.90751330  0.31507700  0.19005841  1
  O  O424  1  0.65513497  0.19205601  0.23962041  1
  N  N425  1  0.67611848  0.24245735  0.04803229  1
  O  O426  1  0.91091958  0.24617570  0.04407131  1
  O  O427  1  0.87719638  0.45803071  0.09888770  1
  O  O428  1  0.50158279  0.32911786  0.15534970  1
  H  H429  1  0.76502050  0.42011653  0.05495310  1
  C  C430  1  0.68571341  0.25140200  0.09254114  1
  N  N431  1  0.52749252  0.34291037  0.07221908  1
  Cu  Cu432  1  0.93330731  0.42220035  0.14389890  1
  C  C433  1  0.70340570  0.38878825  0.18591720  1
  H  H434  1  0.66492442  0.41170781  0.04747014  1
  C  C435  1  0.86530660  0.31780863  0.15633353  1
  C  C436  1  0.62332969  0.36182547  0.18983779  1
  H  H437  1  0.76945371  0.24435653  0.20957101  1
  C  C438  1  0.78342126  0.43996055  0.02496804  1
  C  C439  1  0.74657013  0.40168430  0.22403045  1
  C  C440  1  0.75936104  0.28357056  0.10285444  1
  C  C441  1  0.62934964  0.38610834  0.02359409  1
  C  C442  1  0.74803637  0.24590407  0.17633723  1
  O  O443  1  0.85600573  0.45161065  0.18363207  1
  C  C444  1  0.57568145  0.35138365  0.14892261  1
  C  C445  1  0.82895153  0.43572284  0.22363698  1
  C  C446  1  0.59167063  0.34734678  0.23145012  1
  C  C447  1  0.78809521  0.27915180  0.14542773  1
  H  H448  1  0.79730704  0.30552942  0.07774064  1
  O  O449  1  0.60153445  0.36526018  0.11189706  1
  H  H450  1  0.72589829  0.40247842  0.15416188  1
  C  C451  1  0.54993245  0.35355415  0.03207655  1
  O  O452  1  0.88447369  0.35402943  0.12794483  1
  C  C453  1  0.85390013  0.47107263  0.02045859  1
  H  H454  1  0.52850272  0.32600428  0.23397944  1
  C  C455  1  0.93674706  0.24239147  0.00720636  1
  O  O456  1  0.61535703  0.07173029  0.01005305  1
  C  C457  1  0.51463880  0.49872642  0.13370954  1
  C  C458  1  0.90757733  0.48109068  0.06331287  1
  O  O459  1  0.55314562  0.48652286  0.22206747  1
  C  C460  1  0.65208470  0.11116252  0.34691078  1
  C  C461  1  0.62203565  0.07992464  0.38289258  1
  N  N462  1  0.73923602  0.11915788  0.34473309  1
  H  H463  1  0.66989720  0.06308439  0.40619352  1
  C  C464  1  0.75758016  0.16708090  0.33265466  1
  H  H465  1  0.69592779  0.19000396  0.34197243  1
  C  C466  1  0.84061433  0.18490188  0.31593375  1
  N  N467  1  0.90211229  0.15294641  0.30332443  1
  H  H468  1  0.61445507  0.16099266  0.29157808  1
  C  C469  1  0.59004345  0.13781327  0.31966621  1
  Cu  Cu470  1  0.92643171  0.04763251  0.31528341  1
  O  O471  1  0.55265283  0.02875367  0.45758257  1
  C  C472  1  0.53351962  0.07807422  0.38963231  1
  N  N473  1  0.95673797  0.11884535  0.29337355  1
  C  C474  1  0.85818246  0.24381136  0.30995478  1
  O  O475  1  0.91896156  0.17158670  0.49119382  1
  C  C476  1  0.98263678  0.48038150  0.44252102  1
  C  C477  1  0.50149068  0.13648678  0.32781280  1
  O  O478  1  0.87046127  0.44484415  0.25471708  1
  C  C479  1  0.71529221  0.38909101  0.26543512  1
  C  C480  1  0.90608696  0.48681515  0.41858048  1
  C  C481  1  0.82950658  0.49262827  0.44192883  1
  C  C482  1  0.90457277  0.48554622  0.36902761  1
  C  C483  1  0.79711108  0.25201933  0.48297388  1
  H  H484  1  0.76452005  0.24912927  0.36043292  1
  C  C485  1  0.97638113  0.47152151  0.48770245  1
  H  H486  1  0.89682046  0.40609055  0.42220006  1
  H  H487  1  0.88070192  0.39491564  0.31750241  1
  O  O488  1  0.83600590  0.49596578  0.34995572  1
  C  C489  1  0.94105569  0.37352244  0.42810628  1
  C  C490  1  0.68740016  0.45628001  0.47637651  1
  C  C491  1  0.59410427  0.44397041  0.48241237  1
  O  O492  1  0.97702185  0.47893332  0.35063763  1
  C  C493  1  0.81434695  0.27165739  0.34211560  1
  H  H494  1  0.71385460  0.44434889  0.44621219  1
  H  H495  1  0.60716124  0.34731305  0.43471905  1
  C  C496  1  0.93354761  0.35109167  0.47004662  1
  C  C497  1  0.63294094  0.36186912  0.26995313  1
  C  C498  1  0.82809921  0.48067969  0.48772421  1
  C  C499  1  0.73226306  0.29165276  0.48313752  1
  C  C500  1  0.88081126  0.35316399  0.31500932  1
  C  C501  1  0.93309455  0.32476061  0.28382651  1
  C  C502  1  0.92228672  0.26905719  0.28113950  1
  C  C503  1  0.77690821  0.35770996  0.38101135  1
  N  N504  1  0.74712316  0.45618946  0.36745851  1
  H  H505  1  0.74946171  0.40482192  0.29460365  1
  H  H506  1  0.57748915  0.27812962  0.29255709  1
  H  H507  1  0.78905033  0.28440877  0.41961720  1
  N  N508  1  0.72677042  0.33403508  0.45638259  1
  C  C509  1  0.55849417  0.37492820  0.42288450  1
  C  C510  1  0.76594213  0.32566515  0.41993012  1
  C  C511  1  0.53932567  0.42236968  0.44389800  1
  C  C512  1  0.82316289  0.32864067  0.34493128  1
  H  H513  1  0.84118615  0.24898263  0.45394641  1
  N  N514  1  0.75526836  0.40887673  0.37427913  1
  C  C515  1  0.56848721  0.30872756  0.31803174  1
  C  C516  1  0.51828425  0.30831299  0.35886242  1
  N  N517  1  0.59878552  0.35496591  0.31128111  1
  H  H518  1  0.96534681  0.24868351  0.25853658  1
  C  C519  1  0.50500140  0.35900252  0.38661283  1
  H  H520  1  0.88490241  0.36617327  0.49102863  1
  H  H521  1  0.98017173  0.34388027  0.25966071  1
  O  O522  1  0.94849903  0.02917446  0.25630923  1
  O  O523  1  0.75420359  0.18421214  0.65347260  1
  N  N524  1  0.63816748  0.13632621  0.70920170  1
  Cu  Cu525  1  0.63664741  0.20057364  0.66484971  1
  N  N526  1  0.70433738  0.11258414  0.71268984  1
  H  H527  1  0.72888321  0.18173949  0.57297081  1
  C  C528  1  0.81276909  0.23193349  0.72759352  1
  H  H529  1  0.77875640  0.19544430  0.72569416  1
  C  C530  1  0.81992285  0.21477666  0.64883515  1
  C  C531  1  0.72843142  0.21389559  0.54767114  1
  O  O532  1  0.59838770  0.20801528  0.60494936  1
  H  H533  1  0.83758076  0.15731523  0.57655461  1
  O  O534  1  0.85900369  0.13511871  0.55193354  1
  N  N535  1  0.80758199  0.05598031  0.73513673  1
  O  O536  1  0.91348767  0.01230800  0.54897314  1
  C  C537  1  0.59116050  0.24535496  0.57736347  1
  O  O538  1  0.85608794  0.22293919  0.61457489  1
  O  O539  1  0.51267562  0.20541874  0.68200038  1
  C  C540  1  0.79651249  0.21709401  0.51716756  1
  C  C541  1  0.86481362  0.17577756  0.51895518  1
  Cu  Cu542  1  0.97080041  0.07266306  0.52018900  1
  H  H543  1  0.51613255  0.29781199  0.67692302  1
  N  N544  1  0.84834489  0.00876795  0.69196057  1
  C  C545  1  0.85020014  0.24852947  0.68871603  1
  O  O546  1  0.52050548  0.26613009  0.57182610  1
  C  C547  1  0.66239078  0.25074249  0.54487182  1
  C  C548  1  0.94522075  0.47370541  0.63072826  1
  H  H549  1  0.98291928  0.43769993  0.63379265  1
  C  C550  1  0.90373899  0.29335663  0.68798982  1
  N  N551  1  0.74573764  0.47055216  0.50399870  1
  C  C552  1  0.81243060  0.41492223  0.61643547  1
  C  C553  1  0.90474438  0.47346992  0.51330136  1
  O  O554  1  0.51385008  0.43848797  0.71427132  1
  N  N555  1  0.55248917  0.45019542  0.51951280  1
  H  H556  1  0.61421955  0.31859789  0.51295721  1
  C  C557  1  0.50198548  0.39631314  0.69908538  1
  C  C558  1  0.91987010  0.31811542  0.72692328  1
  C  C559  1  0.68012318  0.31446715  0.68792913  1
  C  C560  1  0.75209968  0.39563675  0.72298888  1
  O  O561  1  0.67817821  0.33537528  0.65013309  1
  O  O562  1  0.52896288  0.38445857  0.66020503  1
  O  O563  1  0.84193860  0.37143436  0.61816226  1
  O  O564  1  0.88030569  0.47952166  0.73194355  1
  N  N565  1  0.59428668  0.48860224  0.56102279  1
  C  C566  1  0.69878902  0.35068454  0.72468422  1
  H  H567  1  0.93197476  0.30762063  0.65567251  1
  H  H568  1  0.90219233  0.46581035  0.54647166  1
  C  C569  1  0.85791190  0.46718984  0.62289367  1
  O  O570  1  0.73057854  0.42034492  0.60392357  1
  N  N571  1  0.54318673  0.48948755  0.59177992  1
  O  O572  1  0.65301381  0.26875532  0.69436130  1
  H  H573  1  0.78977621  0.39997795  0.69168873  1
  Cu  Cu574  1  0.63138615  0.40047467  0.63018902  1
  C  C575  1  0.66586043  0.29170209  0.51663562  1
  N  N576  1  0.92611242  0.00135709  0.69089051  1
  C  C577  1  0.97537117  0.36690986  0.72810841  1
  C  C578  1  0.72972597  0.20883576  0.80026857  1
  C  C579  1  0.68235755  0.21414457  0.88081609  1
  C  C580  1  0.67862838  0.18781639  0.83705606  1
  C  C581  1  0.71765069  0.07849053  0.92844173  1
  C  C582  1  0.62790341  0.19840456  0.91555088  1
  N  N583  1  0.63248350  0.14520045  0.82929511  1
  N  N584  1  0.75150545  0.10078035  0.96319891  1
  N  N585  1  0.59147056  0.10705781  0.81439719  1
  H  H586  1  0.58130437  0.16489627  0.91508725  1
  H  H587  1  0.71757052  0.10624099  0.89939967  1
  H  H588  1  0.82704167  0.10727256  0.88285391  1
  C  C589  1  0.79791159  0.14232583  0.94780933  1
  C  C590  1  0.83444774  0.13958717  0.90502675  1
  H  H591  1  0.72390511  0.19434612  0.76687704  1
  C  C592  1  0.89082331  0.20849835  0.97513520  1
  Cu  Cu593  1  0.67382098  0.04204958  0.80545258  1
  C  C594  1  0.90032074  0.17590660  0.89812324  1
  C  C595  1  0.63572239  0.22816345  0.95484784  1
  C  C596  1  0.92552885  0.20906835  0.93134731  1
  C  C597  1  0.70573193  0.02297886  0.92580820  1
  Cu  Cu598  1  0.53089601  0.05978316  0.85503171  1
  C  C599  1  0.82006859  0.17695288  0.98297690  1
  C  C600  1  0.95522427  0.17860771  0.85664000  1
  O  O601  1  0.93442562  0.15211273  0.82652267  1
  N  N602  1  0.78563750  0.24596390  0.80433484  1
  N  N603  1  0.81662335  0.04474934  0.77311925  1
  C  C604  1  0.99263738  0.39218164  0.93173541  1
  N  N605  1  0.66391512  0.00884159  0.88993529  1
  H  H606  1  0.87641131  0.02553092  0.94766660  1
  N  N607  1  0.51834493  0.17763858  0.98794270  1
  C  C608  1  0.81095603  0.47815768  0.75286489  1
  C  C609  1  0.82758891  0.26155362  0.76755027  1
  N  N610  1  0.65907833  0.39884489  0.98511483  1
  H  H611  1  0.70118188  0.29042227  0.99143543  1
  N  N612  1  0.64444560  0.36592594  0.84246342  1
  H  H613  1  0.51652174  0.10440864  0.95544818  1
  C  C614  1  0.82717508  0.48274168  0.94306227  1
  O  O615  1  0.97078645  0.39831548  0.76161929  1
  H  H616  1  0.60843682  0.37616925  0.92326795  1
  H  H617  1  0.51167535  0.45615521  0.79283853  1
  C  C618  1  0.50772165  0.47503465  0.82516584  1
  C  C619  1  0.75733982  0.43068418  0.75706452  1
  C  C620  1  0.72913942  0.43172935  0.98661634  1
  H  H621  1  0.70936277  0.44698889  0.91557498  1
  C  C622  1  0.66044092  0.33690505  0.76398891  1
  H  H623  1  0.94944066  0.41340493  0.95364459  1
  C  C624  1  0.74467847  0.25702591  0.88462492  1
  C  C625  1  0.69320444  0.27149098  0.95979073  1
  H  H626  1  0.56457893  0.31355030  0.81459973  1
  H  H627  1  0.62215796  0.30120049  0.77006423  1
  H  H628  1  0.94207523  0.42772203  0.87003906  1
  H  H629  1  0.78551522  0.26746528  0.85580825  1
  C  C630  1  0.52066907  0.33707954  0.88340139  1
  H  H631  1  0.89984959  0.32936867  0.79556574  1
  C  C632  1  0.88485054  0.30491574  0.76706716  1
  C  C633  1  0.57837685  0.33501008  0.84526270  1
  C  C634  1  0.71389892  0.42274036  0.79581392  1
  C  C635  1  0.66959683  0.37302675  0.79987991  1
  H  H636  1  0.78883991  0.32059458  0.92172642  1
  C  C637  1  0.74542638  0.28605255  0.92339311  1
  N  N638  1  0.54336079  0.36678482  0.92036533  1
  C  C639  1  0.75012689  0.45523495  0.94614456  1
  H  H640  1  0.72636922  0.44927846  0.82399102  1
  C  C641  1  0.58646305  0.20585784  0.99505615  1
  C  C642  1  0.87817010  0.49272383  0.98043330  1
  Cu  Cu643  1  0.99038467  0.47133046  0.75215126  1
  H  H644  1  0.97426104  0.23897806  0.92180616  1
  C  C645  1  0.98855551  0.39940915  0.88522481  1
  N  N646  1  0.62251487  0.00222323  0.85564658  1
  O  O647  1  0.50989916  0.03624252  0.75105444  1
  Cu  Cu648  1  0.53787785  0.10798604  0.75010788  1
  O  O649  1  0.67913968  0.58716465  0.15765427  1
  H  H650  1  0.84523411  0.58429936  0.18154045  1
  C  C651  1  0.66981147  0.59274501  0.19608445  1
  C  C652  1  0.82727627  0.58943705  0.21658374  1
  C  C653  1  0.74176271  0.59645184  0.23024330  1
  O  O654  1  0.59024772  0.58616157  0.21298774  1
  H  H655  1  0.86969028  0.71956748  0.21508751  1
  C  C656  1  0.97187587  0.72247384  0.14558344  1
  H  H657  1  0.62861087  0.64520434  0.09302764  1
  C  C658  1  0.64473652  0.67338533  0.06717069  1
  C  C659  1  0.60041676  0.66630589  0.02578811  1
  H  H660  1  0.74167851  0.71286168  0.10460523  1
  C  C661  1  0.70908868  0.71223077  0.07314670  1
  H  H662  1  0.56107197  0.52523150  0.15014422  1
  C  C663  1  0.89720538  0.88210380  0.24900203  1
  O  O664  1  0.96660346  0.50981607  0.06433126  1
  O  O665  1  0.96980986  0.73885135  0.02096777  1
  C  C666  1  0.98258684  0.58503030  0.23506189  1
  N  N667  1  0.51071681  0.86283921  0.05770329  1
  C  C668  1  0.84471625  0.74604060  0.18925975  1
  C  C669  1  0.73293010  0.77390285  0.23915678  1
  O  O670  1  0.66351961  0.79960600  0.24747814  1
  O  O671  1  0.99490965  0.69182525  0.17555149  1
  C  C672  1  0.73554496  0.92646209  0.01611957  1
  C  C673  1  0.73249854  0.74545197  0.03799360  1
  N  N674  1  0.77098474  0.85525316  0.09601542  1
  H  H675  1  0.85207091  0.67234943  0.00625381  1
  H  H676  1  0.90113309  0.78897182  0.08999056  1
  C  C677  1  0.89138013  0.75381480  0.15090142  1
  H  H678  1  0.78070759  0.77576509  0.04173628  1
  C  C679  1  0.73811951  0.81500156  0.16683502  1
  C  C680  1  0.67289063  0.89520160  0.04575026  1
  C  C681  1  0.98621838  0.86499227  0.18771862  1
  H  H682  1  0.68246864  0.83779254  0.17478262  1
  H  H683  1  0.64646505  0.82964771  0.09529605  1
  C  C684  1  0.68971158  0.86120233  0.08430586  1
  H  H685  1  0.95202144  0.96972184  0.00659987  1
  C  C686  1  0.82574867  0.93193332  0.02640165  1
  H  H687  1  0.85754344  0.87149137  0.18378600  1
  N  N688  1  0.51821567  0.55153334  0.07123778  1
  C  C689  1  0.78741856  0.81732482  0.12680537  1
  C  C690  1  0.53587901  0.62476067  0.02056149  1
  N  N691  1  0.59494726  0.89659417  0.03094008  1
  C  C692  1  0.86419357  0.78684471  0.11865168  1
  H  H693  1  0.84825419  0.91529926  0.05747720  1
  C  C694  1  0.76800008  0.77593148  0.19471215  1
  N  N695  1  0.90786302  0.88833291  0.20104986  1
  C  C696  1  0.89211309  0.59338911  0.24835511  1
  C  C697  1  0.76041877  0.61041498  0.41959030  1
  C  C698  1  0.80483771  0.61014527  0.37748417  1
  H  H699  1  0.87443731  0.60857230  0.37085682  1
  C  C700  1  0.87606487  0.60767516  0.29182115  1
  C  C701  1  0.78826166  0.61194244  0.30302898  1
  N  N702  1  0.75179389  0.61242784  0.34469922  1
  H  H703  1  0.92700184  0.61928108  0.31351734  1
  N  N704  1  0.67789596  0.60454221  0.41204374  1
  C  C705  1  0.88761790  0.60230059  0.47160511  1
  H  H706  1  0.92919704  0.59303286  0.44103219  1
  C  C707  1  0.79944115  0.61132002  0.46659335  1
  N  N708  1  0.61842460  0.59717909  0.45669486  1
  H  H709  1  0.64939076  0.61307372  0.28077641  1
  N  N710  1  0.85540113  0.72628639  0.33776597  1
  H  H711  1  0.63415075  0.71253402  0.46210951  1
  N  N712  1  0.88172654  0.73154696  0.37529776  1
  C  C713  1  0.71740455  0.60572410  0.27327197  1
  Cu  Cu714  1  0.72464073  0.73967625  0.32185113  1
  C  C715  1  0.56784271  0.72544810  0.45792295  1
  O  O716  1  0.65937883  0.72903875  0.37523140  1
  N  N717  1  0.54250993  0.59476898  0.44413714  1
  O  O718  1  0.77070288  0.74831360  0.26903948  1
  C  C719  1  0.97646122  0.70007361  0.42988472  1
  C  C720  1  0.90739231  0.73898785  0.41675179  1
  Cu  Cu721  1  0.60824107  0.80525126  0.30380928  1
  O  O722  1  0.54278879  0.75676553  0.34266516  1
  C  C723  1  0.58155628  0.73962080  0.37719910  1
  C  C724  1  0.97608623  0.88224228  0.31878441  1
  C  C725  1  0.82220426  0.87133251  0.31504277  1
  H  H726  1  0.75137868  0.87349385  0.25265970  1
  C  C727  1  0.81529418  0.87727794  0.27011427  1
  H  H728  1  0.89328920  0.87085138  0.37571059  1
  C  C729  1  0.89918780  0.87621375  0.34056230  1
  H  H730  1  0.82989732  0.81796238  0.42386179  1
  N  N731  1  0.89312891  0.79723108  0.47637898  1
  H  H732  1  0.76670321  0.50488757  0.42678324  1
  C  C733  1  0.87357704  0.78558709  0.43577919  1
  C  C734  1  0.73778836  0.86651857  0.34119676  1
  C  C735  1  0.97337332  0.88705936  0.27284627  1
  O  O736  1  0.73378274  0.86283191  0.38021099  1
  O  O737  1  0.67195791  0.86459446  0.31583500  1
  H  H738  1  0.72577939  0.82473900  0.48059826  1
  C  C739  1  0.51131076  0.72841483  0.49414352  1
  C  C740  1  0.86668574  0.84207255  0.49529374  1
  C  C741  1  0.77376931  0.85279596  0.49438976  1
  O  O742  1  0.59920737  0.88448849  0.49196576  1
  C  C743  1  0.52937789  0.73849270  0.41719857  1
  H  H744  1  0.98022074  0.73728216  0.49324490  1
  Cu  Cu745  1  0.52566118  0.54398398  0.25477345  1
  C  C746  1  0.92600979  0.56558032  0.64557815  1
  H  H747  1  0.95557796  0.60598659  0.64983672  1
  C  C748  1  0.72560503  0.61817478  0.58998422  1
  C  C749  1  0.77589718  0.60729944  0.63456433  1
  C  C750  1  0.83538335  0.55977841  0.63580659  1
  C  C751  1  0.78289352  0.61243705  0.54929623  1
  C  C752  1  0.87632454  0.60915340  0.55040120  1
  N  N753  1  0.77282938  0.63511666  0.67032346  1
  H  H754  1  0.91311471  0.60746261  0.58055735  1
  N  N755  1  0.64239020  0.62487717  0.58388847  1
  H  H756  1  0.73614425  0.66860429  0.66938195  1
  N  N757  1  0.57607178  0.63692629  0.62794063  1
  H  H758  1  0.85131592  0.69207629  0.54563635  1
  C  C759  1  0.85618431  0.72949311  0.56299343  1
  C  C760  1  0.61728229  0.73150027  0.54802225  1
  C  C761  1  0.97943936  0.52465287  0.63819652  1
  C  C762  1  0.92729504  0.60029777  0.51460481  1
  O  O763  1  0.62306757  0.96388238  0.52047464  1
  H  H764  1  0.99354748  0.72530710  0.57589824  1
  C  C765  1  0.80272312  0.51072200  0.62161255  1
  C  C766  1  0.68858643  0.74715150  0.55815565  1
  H  H767  1  0.68079726  0.62385488  0.50251265  1
  N  N768  1  0.50243156  0.62899577  0.61487628  1
  C  C769  1  0.93488894  0.74744089  0.57980173  1
  N  N770  1  0.53717048  0.71011148  0.53788443  1
  C  C771  1  0.78108612  0.76187491  0.57147766  1
  C  C772  1  0.94480093  0.96700885  0.54321805  1
  H  H773  1  0.76963303  0.94553806  0.65753182  1
  C  C774  1  0.57464808  0.93037686  0.61787056  1
  C  C775  1  0.57251394  0.97519963  0.70191101  1
  N  N776  1  0.70451917  0.88276930  0.63638686  1
  C  C777  1  0.92292152  0.87906753  0.51542042  1
  C  C778  1  0.86890924  0.82719064  0.61079287  1
  H  H779  1  0.73267281  0.83816920  0.59312721  1
  C  C780  1  0.64082664  0.91740509  0.64724028  1
  N  N781  1  0.92288016  0.91661237  0.63536916  1
  C  C782  1  0.56432208  0.99988609  0.74562569  1
  C  C783  1  0.74878630  0.61490222  0.50580214  1
  C  C784  1  0.88880827  0.92696132  0.52468980  1
  H  H785  1  0.69029645  0.93104838  0.71306283  1
  C  C786  1  0.94438976  0.79550640  0.60329511  1
  N  N787  1  0.96704973  0.95545092  0.64506962  1
  C  C788  1  0.77795003  0.90428596  0.64386737  1
  C  C789  1  0.78882980  0.80988606  0.59255713  1
  H  H790  1  0.77102310  0.97962072  0.53139480  1
  C  C791  1  0.80012487  0.94062047  0.52007425  1
  C  C792  1  0.85868087  0.88087073  0.63216693  1
  C  C793  1  0.63631818  0.94129371  0.69017882  1
  H  H794  1  0.56930290  0.91158387  0.58537696  1
  H  H795  1  0.73269649  0.50824286  0.61265364  1
  H  H796  1  0.53995024  0.66925870  0.54496648  1
  H  H797  1  0.99553732  0.87408851  0.51716278  1
  H  H798  1  0.99750747  0.59656666  0.51529176  1
  C  C799  1  0.50890038  0.98957889  0.67072502  1
  Cu  Cu800  1  0.51140479  0.99117123  0.50315894  1
  C  C801  1  0.50896496  0.96574095  0.62984480  1
  C  C802  1  0.64796592  0.91644041  0.50763020  1
  C  C803  1  0.74497730  0.89939204  0.50884491  1
  C  C804  1  0.78715370  0.65657655  0.94342528  1
  C  C805  1  0.77603158  0.67374381  0.89976117  1
  C  C806  1  0.89539321  0.72382287  0.95328285  1
  H  H807  1  0.73210938  0.65282211  0.87636068  1
  C  C808  1  0.82104764  0.71727078  0.88589582  1
  C  C809  1  0.80712921  0.73867213  0.83993671  1
  C  C810  1  0.63610107  0.55844578  0.90920313  1
  O  O811  1  0.73463242  0.72191663  0.82188723  1
  C  C812  1  0.69021534  0.58355428  0.92920346  1
  N  N813  1  0.57405441  0.69426706  0.79369060  1
  C  C814  1  0.88374185  0.74248177  0.91060109  1
  H  H815  1  0.58469718  0.70032340  0.95618007  1
  C  C816  1  0.56850600  0.52650087  0.88593540  1
  Cu  Cu817  1  0.62746971  0.73292237  0.84513476  1
  O  O818  1  0.93093177  0.59169678  0.77914565  1
  N  N819  1  0.52416696  0.71494440  0.76916444  1
  Cu  Cu820  1  0.86310146  0.55441111  0.81977871  1
  N  N821  1  0.74689621  0.61017333  0.95727664  1
  C  C822  1  0.84706893  0.68342931  0.97144303  1
  H  H823  1  0.94107703  0.51563123  0.97850927  1
  C  C824  1  0.69444550  0.95094698  0.98042334  1
  O  O825  1  0.88618966  0.99268355  0.77826328  1
  O  O826  1  0.78997941  0.51552194  0.77898635  1
  C  C827  1  0.96478708  0.74838052  0.98223810  1
  C  C828  1  0.57549557  0.50655531  0.84119915  1
  H  H829  1  0.63370213  0.51724047  0.81970438  1
  O  O830  1  0.92749909  0.53348086  0.90724013  1
  O  O831  1  0.85420350  0.77138720  0.82460441  1
  H  H832  1  0.91928913  0.77811102  0.89920876  1
  C  C833  1  0.71737179  0.86916491  0.81902114  1
  C  C834  1  0.89236719  0.97603642  0.81868534  1
  O  O835  1  0.59509047  0.80863619  0.80471227  1
  N  N836  1  0.80297379  0.85872845  0.93152993  1
  C  C837  1  0.61883420  0.70033103  0.98878503  1
  O  O838  1  0.62220200  0.98718892  0.77272105  1
  C  C839  1  0.74992455  0.98569788  0.95802698  1
  C  C840  1  0.84045788  0.99224869  0.96584275  1
  O  O841  1  0.54990104  0.79764379  0.91896179  1
  C  C842  1  0.83738155  0.91870724  0.87658668  1
  C  C843  1  0.77488341  0.87976687  0.89082618  1
  H  H844  1  0.82024238  0.88182247  0.95789005  1
  C  C845  1  0.77351341  0.90829761  0.80438892  1
  C  C846  1  0.75447867  0.81684066  0.95035007  1
  H  H847  1  0.88442243  0.93568126  0.89904479  1
  H  H848  1  0.62823839  0.94632922  0.97202804  1
  C  C849  1  0.83069297  0.93329751  0.83354631  1
  H  H850  1  0.77696211  0.91893709  0.76980119  1
  C  C851  1  0.71223544  0.85591760  0.86364492  1
  H  H852  1  0.66377054  0.82765615  0.87465088  1
  C  C853  1  0.71303812  0.78210522  0.96749773  1
  O  O854  1  0.52091697  0.73995634  0.86707697  1
  C  C855  1  0.65418543  0.84388699  0.78895456  1
  C  C856  1  0.50062584  0.76569493  0.90393420  1
  O  O857  1  0.94365473  0.99380234  0.84381272  1
  C  C858  1  0.85942421  0.51139578  0.90332691  1
  O  O859  1  0.81558342  0.51696936  0.86525470  1
  H  H860  1  0.72640014  0.60606717  0.98874388  1
  C  C861  1  0.68341899  0.73970919  0.99815285  1
  C  C862  1  0.88111748  0.96280683  0.99924733  1
  O  O863  1  0.66084190  0.85552336  0.75216912  1
