# generated using pymatgen
data_Zn2H81(C5O)18
_symmetry_space_group_name_H-M   'P 1'
_cell_length_a   17.36043563
_cell_length_b   21.97460972
_cell_length_c   19.43682553
_cell_angle_alpha   90.00000000
_cell_angle_beta   90.00000000
_cell_angle_gamma   90.00000000
_symmetry_Int_Tables_number   1
_chemical_formula_structural   Zn2H81(C5O)18
_chemical_formula_sum   'Zn8 H324 C360 O72'
_cell_volume   7414.93120130
_cell_formula_units_Z   4
loop_
 _symmetry_equiv_pos_site_id
 _symmetry_equiv_pos_as_xyz
  1  'x, y, z'
loop_
 _atom_site_type_symbol
 _atom_site_label
 _atom_site_symmetry_multiplicity
 _atom_site_fract_x
 _atom_site_fract_y
 _atom_site_fract_z
 _atom_site_occupancy
  C  C0  1  0.35038775  0.10406790  0.15965861  1
  C  C1  1  0.36742296  0.22694907  0.08605938  1
  O  O2  1  0.18048276  0.40307584  0.19860612  1
  H  H3  1  0.34524429  0.14493658  0.19675634  1
  O  O4  1  0.46725260  0.18643313  0.22204757  1
  H  H5  1  0.37352716  0.11959906  0.10804220  1
  H  H6  1  0.21704488  0.06549004  0.00336723  1
  H  H7  1  0.20447834  0.14855670  0.17279265  1
  C  C8  1  0.41031321  0.39246856  0.08894094  1
  C  C9  1  0.13701288  0.00731151  0.13717494  1
  H  H10  1  0.17683121  0.21862964  0.11149273  1
  H  H11  1  0.29196586  0.43674590  0.03010828  1
  O  O12  1  0.05760971  0.10276096  0.15769418  1
  H  H13  1  0.34232927  0.05519407  0.03264161  1
  C  C14  1  0.30037888  0.23321027  0.12576213  1
  C  C15  1  0.27097136  0.07087183  0.15203115  1
  O  O16  1  0.29115109  0.25301596  0.19238244  1
  C  C17  1  0.12079863  0.46368917  0.03259742  1
  C  C18  1  0.27837358  0.00668845  0.13749804  1
  H  H19  1  0.38969077  0.06824136  0.18011770  1
  O  O20  1  0.30496292  0.47687885  0.01593490  1
  C  C21  1  0.24037181  0.42575970  0.20491739  1
  C  C22  1  0.44529783  0.24410240  0.22094797  1
  H  H23  1  0.46452506  0.42134663  0.09532709  1
  C  C24  1  0.19977932  0.09897255  0.15993458  1
  C  C25  1  0.38841413  0.38489379  0.01163380  1
  H  H26  1  0.42494036  0.34572634  0.10820949  1
  C  C27  1  0.23350848  0.21620164  0.08974669  1
  O  O28  1  0.48895101  0.28561134  0.21101240  1
  C  C29  1  0.40319903  0.04293947  0.03463245  1
  H  H30  1  0.12511911  0.43016670  0.07615405  1
  C  C31  1  0.12856437  0.07092863  0.14943788  1
  H  H32  1  0.42257154  0.23844058  0.10911813  1
  C  C33  1  0.05420982  0.15854660  0.19422850  1
  C  C34  1  0.36953941  0.20400929  0.01879151  1
  C  C35  1  0.23769671  0.19294422  0.02251134  1
  H  H36  1  0.15867739  0.19857912  0.22502590  1
  H  H37  1  0.13551860  0.13694083  0.03663318  1
  H  H38  1  0.06441392  0.45948157  0.00903964  1
  H  H39  1  0.36342065  0.41243365  0.12158400  1
  C  C40  1  0.09563200  0.20037759  0.22241340  1
  O  O41  1  0.30173101  0.44697120  0.20855567  1
  H  H42  1  0.49521831  0.21651663  0.02384711  1
  C  C43  1  0.35606869  0.25707795  0.23774067  1
  H  H44  1  0.00709101  0.37498482  0.24075463  1
  H  H45  1  0.06594942  0.23864147  0.24530563  1
  C  C46  1  0.15308672  0.17653281  0.00316857  1
  H  H47  1  0.10881098  0.21446812  0.01089788  1
  C  C48  1  0.17084349  0.09505449  0.32490808  1
  H  H49  1  0.12296175  0.07975171  0.29053083  1
  C  C50  1  0.37246003  0.02221163  0.32558685  1
  H  H51  1  0.14551392  0.10655753  0.37863495  1
  H  H52  1  0.14613159  0.38171279  0.30257443  1
  H  H53  1  0.13950815  0.19864545  0.38318776  1
  O  O54  1  0.35300951  0.34044499  0.43336828  1
  H  H55  1  0.10480479  0.40274328  0.38201503  1
  O  O56  1  0.44301814  0.03151703  0.32192267  1
  C  C57  1  0.23524111  0.04658294  0.32556119  1
  H  H58  1  0.37201731  0.07498267  0.43016423  1
  Zn  Zn59  1  0.46750409  0.12627328  0.31456450  1
  H  H60  1  0.16917271  0.33552742  0.37292724  1
  C  C61  1  0.08162238  0.26779996  0.43847749  1
  H  H62  1  0.19847707  0.14002072  0.30986408  1
  C  C63  1  0.05428657  0.49663222  0.45715498  1
  H  H64  1  0.38004078  0.30660034  0.33289403  1
  C  C65  1  0.35720602  0.31566852  0.28161109  1
  O  O66  1  0.33728998  0.12373090  0.31207890  1
  C  C67  1  0.12042420  0.36204753  0.35046612  1
  C  C68  1  0.31107716  0.07068437  0.31908270  1
  C  C69  1  0.13799350  0.22355457  0.43131848  1
  H  H70  1  0.33353644  0.21549890  0.26901613  1
  H  H71  1  0.00971454  0.04736663  0.38847605  1
  C  C72  1  0.34852432  0.08139836  0.48270736  1
  H  H73  1  0.37482238  0.20872577  0.42463520  1
  C  C74  1  0.02922035  0.27904708  0.37728173  1
  H  H75  1  0.30056057  0.34060716  0.28425995  1
  O  O76  1  0.34324017  0.44404898  0.41308485  1
  C  C77  1  0.04832953  0.32413482  0.32986699  1
  H  H78  1  0.06377500  0.06186769  0.46164857  1
  C  C79  1  0.34472561  0.39207713  0.42125229  1
  H  H80  1  0.40086138  0.34764056  0.25843553  1
  C  C81  1  0.18367605  0.20546800  0.48983522  1
  C  C82  1  0.18175892  0.09175826  0.49587026  1
  H  H83  1  0.21091919  0.39234345  0.47452776  1
  C  C84  1  0.23003789  0.14673794  0.49229497  1
  C  C85  1  0.31070248  0.14213435  0.48759048  1
  C  C86  1  0.36036221  0.20096982  0.48137364  1
  C  C87  1  0.29927388  0.02553721  0.49819150  1
  H  H88  1  0.07777610  0.00498285  0.26850647  1
  C  C89  1  0.48504771  0.23327475  0.62478559  1
  H  H90  1  0.10887573  0.47812270  0.62417621  1
  H  H91  1  0.48837439  0.13823914  0.58978962  1
  C  C92  1  0.17928228  0.47806760  0.52848487  1
  C  C93  1  0.06364878  0.29677932  0.50504219  1
  H  H94  1  0.42779633  0.06343684  0.62773985  1
  H  H95  1  0.01169851  0.22067439  0.65773149  1
  C  C96  1  0.16029171  0.30345966  0.68118747  1
  O  O97  1  0.49125994  0.42312426  0.69872103  1
  H  H98  1  0.46527399  0.40885451  0.56893120  1
  C  C99  1  0.00756675  0.06175380  0.65506540  1
  H  H100  1  0.19377433  0.38399103  0.56850557  1
  C  C101  1  0.17299638  0.09349538  0.68196293  1
  H  H102  1  0.28313203  0.13508277  0.65856653  1
  C  C103  1  0.24507263  0.11678188  0.70104454  1
  C  C104  1  0.45477787  0.26591234  0.68071493  1
  C  C105  1  0.41649912  0.14584287  0.67964085  1
  H  H106  1  0.28031442  0.47830139  0.59486477  1
  C  C107  1  0.11801437  0.28562209  0.56119892  1
  C  C108  1  0.40410295  0.08592193  0.67293952  1
  H  H109  1  0.15172614  0.09635744  0.62844500  1
  C  C110  1  0.04065464  0.17519683  0.65608171  1
  C  C111  1  0.22455109  0.26303319  0.67283517  1
  C  C112  1  0.12862596  0.06675259  0.73582957  1
  C  C113  1  0.44896420  0.36009039  0.56051028  1
  H  H114  1  0.27926239  0.19566933  0.60628032  1
  C  C115  1  0.17911657  0.23873300  0.55515385  1
  C  C116  1  0.03855749  0.39579750  0.68908354  1
  H  H117  1  0.26584278  0.25218745  0.71718953  1
  H  H118  1  0.11699857  0.39468935  0.50642880  1
  C  C119  1  0.46644149  0.17254699  0.62636616  1
  C  C120  1  0.23431493  0.23084288  0.61095737  1
  C  C121  1  0.10485246  0.31587481  0.62582307  1
  H  H122  1  0.36685074  0.06019961  0.70788291  1
  C  C123  1  0.15155702  0.34660690  0.73792875  1
  H  H124  1  0.06926239  0.06731822  0.54793776  1
  H  H125  1  0.05489182  0.16396961  0.71184267  1
  H  H126  1  0.09370558  0.18222439  0.62370707  1
  C  C127  1  0.05453605  0.03961053  0.71393814  1
  C  C128  1  0.03971059  0.35667927  0.63055748  1
  H  H129  1  0.48170614  0.31074205  0.67845564  1
  H  H130  1  0.41234368  0.35922861  0.51061873  1
  H  H131  1  0.41713152  0.34397568  0.60311602  1
  C  C132  1  0.09295575  0.09233024  0.50119665  1
  C  C133  1  0.22122009  0.03741103  0.50257860  1
  C  C134  1  0.09544644  0.39253074  0.74017089  1
  H  H135  1  0.41339150  0.19466389  0.51081086  1
  C  C136  1  0.40842735  0.24584693  0.73620066  1
  H  H137  1  0.26817252  0.42625455  0.71112665  1
  C  C138  1  0.47085719  0.03131893  0.51508291  1
  C  C139  1  0.17580844  0.40890062  0.51936365  1
  O  O140  1  0.44046634  0.08832199  0.50598658  1
  C  C141  1  0.38505532  0.18624929  0.73795064  1
  H  H142  1  0.33120285  0.24289389  0.50175949  1
  H  H143  1  0.06649202  0.14127916  0.50022425  1
  H  H144  1  0.16814961  0.20699167  0.79438361  1
  H  H145  1  0.33230050  0.46632177  0.76870305  1
  C  C146  1  0.33483808  0.15659518  0.78905223  1
  C  C147  1  0.30488020  0.15078120  0.91237745  1
  H  H148  1  0.37573874  0.34190485  0.77155757  1
  C  C149  1  0.20634147  0.06548589  0.94775907  1
  C  C150  1  0.14744323  0.02582424  0.92987567  1
  H  H151  1  0.23734059  0.25784065  0.94174501  1
  C  C152  1  0.22095365  0.09692200  0.82860522  1
  H  H153  1  0.07618828  0.13324622  0.86353704  1
  C  C154  1  0.29330525  0.39668923  0.88403453  1
  H  H155  1  0.44064235  0.30122708  0.82895844  1
  H  H156  1  0.32808504  0.43683417  0.89758089  1
  H  H157  1  0.14914595  0.16127599  0.94698248  1
  C  C158  1  0.27639664  0.44379361  0.76459828  1
  H  H159  1  0.43647710  0.36504907  0.98165735  1
  H  H160  1  0.42640221  0.01366955  0.90704762  1
  H  H161  1  0.13815897  0.21842208  0.88033347  1
  H  H162  1  0.38935259  0.21189194  0.87124289  1
  H  H163  1  0.08825678  0.25582728  0.80710062  1
  C  C164  1  0.34765197  0.17533059  0.86003088  1
  O  O165  1  0.43152705  0.49035739  0.97095198  1
  C  C166  1  0.21036008  0.34492810  0.79472173  1
  C  C167  1  0.38873392  0.45451844  0.99469737  1
  C  C168  1  0.15561620  0.06065666  0.80780486  1
  C  C169  1  0.28672828  0.34774149  0.92873307  1
  C  C170  1  0.12229072  0.01925518  0.85825129  1
  C  C171  1  0.20174764  0.29665060  0.84311891  1
  H  H172  1  0.44051140  0.08139932  0.84200825  1
  H  H173  1  0.33710768  0.03370106  0.85904371  1
  C  C174  1  0.24759023  0.10222886  0.89960139  1
  C  C175  1  0.24351866  0.29672339  0.90558164  1
  C  C176  1  0.26663578  0.12032262  0.77156685  1
  H  H177  1  0.09449282  0.42558926  0.78253637  1
  C  C178  1  0.01013397  0.12841638  0.85766785  1
  H  H179  1  0.33857787  0.28379430  0.82094168  1
  C  C180  1  0.14589489  0.24208408  0.82911369  1
  C  C181  1  0.38992666  0.29612069  0.79063490  1
  H  H182  1  0.44760280  0.10866788  0.96257992  1
  C  C183  1  0.25821838  0.39302647  0.81896527  1
  C  C184  1  0.30552898  0.17919220  0.98489644  1
  H  H185  1  0.46425724  0.18306588  0.94647029  1
  C  C186  1  0.46080750  0.06802447  0.99355287  1
  H  H187  1  0.16260069  0.44940448  0.99002812  1
  O  O188  1  0.12479682  0.49750417  0.84273493  1
  O  O189  1  0.32592447  0.34561712  0.99322645  1
  H  H190  1  0.22966576  0.47889320  0.77235397  1
  H  H191  1  0.49603959  0.07417959  0.76558198  1
  H  H192  1  0.11330138  0.01107677  0.97698309  1
  C  C193  1  0.44899415  0.21500271  0.98525895  1
  H  H194  1  0.45538484  0.26145189  0.96168067  1
  H  H195  1  0.21779442  0.87927621  0.17227177  1
  C  C196  1  0.15794123  0.65573893  0.07258784  1
  H  H197  1  0.24229151  0.63218214  0.16464016  1
  C  C198  1  0.05197082  0.52827395  0.16360688  1
  C  C199  1  0.05108900  0.52863504  0.23944815  1
  C  C200  1  0.01537381  0.76595626  0.11159235  1
  C  C201  1  0.08696566  0.65453400  0.18591031  1
  C  C202  1  0.28941504  0.59993485  0.17385513  1
  C  C203  1  0.03192044  0.88780691  0.01459151  1
  C  C204  1  0.20124694  0.90510799  0.12570339  1
  C  C205  1  0.12284148  0.62145177  0.12458044  1
  H  H206  1  0.32569028  0.79805381  0.09772319  1
  O  O207  1  0.01588234  0.95385735  0.03831022  1
  H  H208  1  0.14257553  0.89041036  0.11389005  1
  C  C209  1  0.11030522  0.55689903  0.11622968  1
  C  C210  1  0.41686076  0.99991174  0.08913598  1
  H  H211  1  0.37407123  0.66370912  0.12364264  1
  H  H212  1  0.08352072  0.98046236  0.12794897  1
  H  H213  1  0.12450718  0.64279315  0.23083884  1
  C  C214  1  0.20511722  0.97463781  0.13175319  1
  Zn  Zn215  1  0.31897395  0.54732434  0.09113981  1
  C  C216  1  0.18505019  0.78278686  0.20190268  1
  H  H217  1  0.03084545  0.63335305  0.19593752  1
  C  C218  1  0.23622470  0.73339724  0.19658186  1
  H  H219  1  0.23684016  0.89296426  0.07971509  1
  H  H220  1  0.30979884  0.73039340  0.03823623  1
  O  O221  1  0.44512442  0.59818932  0.15504750  1
  H  H222  1  0.17272436  0.81014258  0.15633377  1
  C  C223  1  0.22018268  0.80196893  0.03743614  1
  C  C224  1  0.27875028  0.76478114  0.07542833  1
  H  H225  1  0.39407328  0.73668125  0.20913589  1
  C  C226  1  0.39126300  0.78947748  0.21393957  1
  O  O227  1  0.28046593  0.72656441  0.13641050  1
  C  C228  1  0.37576194  0.93553033  0.19002705  1
  H  H229  1  0.32614810  0.79873035  0.21760316  1
  H  H230  1  0.32879186  0.92115812  0.22352657  1
  H  H231  1  0.16766610  0.70471024  0.07928335  1
  C  C232  1  0.07441379  0.78262421  0.08268434  1
  C  C233  1  0.13673482  0.80987820  0.04533615  1
  H  H234  1  0.08018962  0.70458967  0.17999578  1
  C  C235  1  0.37341358  0.61734180  0.14984941  1
  C  C236  1  0.35884999  0.97958619  0.13864138  1
  C  C237  1  0.45321825  0.91525895  0.19899590  1
  C  C238  1  0.49438559  0.97565558  0.09756566  1
  C  C239  1  0.13057655  0.52993930  0.05522238  1
  C  C240  1  0.11176506  0.86071981  0.00625453  1
  H  H241  1  0.28368970  0.58217305  0.22695817  1
  H  H242  1  0.40555947  0.81150627  0.16494979  1
  C  C243  1  0.49483214  0.83384898  0.05442251  1
  H  H244  1  0.02904991  0.82573382  0.22635214  1
  H  H245  1  0.29466752  0.66199227  0.24484890  1
  C  C246  1  0.44697122  0.80855582  0.00109499  1
  C  C247  1  0.17260814  0.56498358  0.00786343  1
  C  C248  1  0.18720436  0.62703714  0.01173140  1
  H  H249  1  0.21059591  0.61785123  0.36671171  1
  C  C250  1  0.05361268  0.50386179  0.38282225  1
  C  C251  1  0.14799173  0.74634330  0.31739420  1
  C  C252  1  0.18366354  0.90728796  0.46774695  1
  H  H253  1  0.21089670  0.85864107  0.32046982  1
  H  H254  1  0.21422315  0.68313889  0.42736841  1
  C  C255  1  0.35182562  0.96078946  0.33264768  1
  H  H256  1  0.41201053  0.97222948  0.44248035  1
  C  C257  1  0.27556258  0.94226710  0.33980903  1
  H  H258  1  0.40305670  0.77931958  0.36532733  1
  C  C259  1  0.21006131  0.70520657  0.31394727  1
  C  C260  1  0.04355184  0.91025952  0.43419743  1
  H  H261  1  0.15460993  0.77897295  0.45367540  1
  C  C262  1  0.09611758  0.76527168  0.43475156  1
  C  C263  1  0.06966728  0.97548200  0.31332846  1
  H  H264  1  0.24455341  0.91540362  0.45289681  1
  C  C265  1  0.26853803  0.87144081  0.33903787  1
  H  H266  1  0.07739596  0.63954021  0.42139091  1
  C  C267  1  0.13398822  0.96061743  0.35735952  1
  H  H268  1  0.45928323  0.72140079  0.46218176  1
  H  H269  1  0.39840710  0.92505392  0.33797284  1
  C  C270  1  0.25140074  0.69745617  0.25260384  1
  C  C271  1  0.08503582  0.74064862  0.37246116  1
  H  H272  1  0.03996528  0.83645282  0.31451267  1
  C  C273  1  0.12354208  0.52292290  0.34806304  1
  C  C274  1  0.23100640  0.66410808  0.37585088  1
  C  C275  1  0.44365573  0.81641021  0.26911786  1
  H  H276  1  0.17423401  0.53056012  0.37855419  1
  C  C277  1  0.12327871  0.53424751  0.27758318  1
  C  C278  1  0.47888085  0.66848830  0.37092549  1
  H  H279  1  0.31696443  0.85139909  0.30727994  1
  H  H280  1  0.29567187  0.65786169  0.37903155  1
  C  C281  1  0.07312957  0.83669207  0.26548976  1
  C  C282  1  0.12219635  0.92819449  0.42105655  1
  O  O283  1  0.44070337  0.70531646  0.32490264  1
  C  C284  1  0.21326853  0.98521697  0.34130513  1
  O  O285  1  0.48250271  0.61376249  0.35847539  1
  C  C286  1  0.45750478  0.78014356  0.33188320  1
  H  H287  1  0.27621031  0.85449804  0.39145073  1
  H  H288  1  0.02664118  0.62934184  0.32000181  1
  H  H289  1  0.04787681  0.77226896  0.46947230  1
  C  C290  1  0.00196501  0.72248781  0.35560935  1
  C  C291  1  0.02511457  0.87432760  0.49351086  1
  H  H292  1  0.02050224  0.58765007  0.46172583  1
  C  C293  1  0.06696548  0.61969952  0.47136465  1
  C  C294  1  0.14136334  0.78968611  0.26238144  1
  C  C295  1  0.42209628  0.97435996  0.49763214  1
  C  C296  1  0.12480366  0.51784858  0.49637284  1
  H  H297  1  0.32236669  0.63312365  0.49764240  1
  H  H298  1  0.09425088  0.88330384  0.25474659  1
  C  C299  1  0.47566172  0.87574100  0.26062693  1
  H  H300  1  0.17899042  0.54639068  0.25547751  1
  H  H301  1  0.38494722  0.90692449  0.66590396  1
  C  C302  1  0.16836430  0.87069432  0.52308045  1
  H  H303  1  0.14361174  0.96509225  0.70458929  1
  C  C304  1  0.14878339  0.70198756  0.65860161  1
  H  H305  1  0.08028006  0.55545747  0.61058399  1
  C  C306  1  0.08657193  0.85917383  0.53811303  1
  H  H307  1  0.13059500  0.53230825  0.68578388  1
  H  H308  1  0.29222864  0.91424990  0.71483302  1
  H  H309  1  0.19327562  0.66440269  0.66800638  1
  H  H310  1  0.12841101  0.70064497  0.60325598  1
  H  H311  1  0.35552505  0.70682630  0.52669527  1
  C  C312  1  0.26424823  0.87167432  0.70437796  1
  H  H313  1  0.28348519  0.72491194  0.71682879  1
  H  H314  1  0.09799243  0.69341041  0.69345487  1
  O  O315  1  0.45818980  0.70783459  0.63755592  1
  C  C316  1  0.08550575  0.51829106  0.65004952  1
  C  C317  1  0.35871009  0.63675479  0.60692232  1
  C  C318  1  0.24694312  0.57068259  0.57322035  1
  C  C319  1  0.48323776  0.54050109  0.64598334  1
  C  C320  1  0.18643819  0.76531057  0.66817209  1
  C  C321  1  0.30197151  0.81725668  0.71854897  1
  H  H322  1  0.00117377  0.77121403  0.66720545  1
  C  C323  1  0.25701779  0.76680578  0.70054590  1
  O  O324  1  0.40946407  0.66268244  0.71683552  1
  C  C325  1  0.40755917  0.67029884  0.65242932  1
  H  H326  1  0.02427117  0.94106271  0.67776786  1
  C  C327  1  0.00820916  0.50960281  0.68802015  1
  C  C328  1  0.16439887  0.94047099  0.65557183  1
  C  C329  1  0.14968220  0.82037999  0.64828343  1
  C  C330  1  0.07978771  0.82693217  0.60411578  1
  H  H331  1  0.21339716  0.84968697  0.55565374  1
  C  C332  1  0.19299737  0.87551279  0.66923053  1
  H  H333  1  0.44165371  0.95385495  0.71796805  1
  H  H334  1  0.11832977  0.93933992  0.61741708  1
  H  H335  1  0.20757661  0.97223231  0.63014358  1
  C  C336  1  0.00627871  0.80092820  0.62104351  1
  H  H337  1  0.04656008  0.65699389  0.50396827  1
  H  H338  1  0.18190037  0.99803300  0.50952113  1
  O  O339  1  0.31192355  0.59765981  0.62451613  1
  H  H340  1  0.48261512  0.89127293  0.67122262  1
  C  C341  1  0.36534286  0.65734836  0.53161303  1
  C  C342  1  0.24099957  0.50845661  0.56631536  1
  H  H343  1  0.42547855  0.65059175  0.51245405  1
  H  H344  1  0.46336452  0.52422034  0.69804261  1
  C  C345  1  0.19484642  0.60995506  0.54245978  1
  C  C346  1  0.43277760  0.90762331  0.70102441  1
  H  H347  1  0.43572862  0.55237391  0.61393533  1
  H  H348  1  0.19894957  0.65963366  0.55042377  1
  O  O349  1  0.33226298  0.97509081  0.51085585  1
  C  C350  1  0.47662904  0.92199867  0.52172335  1
  Zn  Zn351  1  0.49102489  0.73827329  0.74101893  1
  C  C352  1  0.13409445  0.58199771  0.50310458  1
  H  H353  1  0.44487227  0.87817390  0.52580258  1
  H  H354  1  0.49898217  0.93092136  0.57464713  1
  C  C355  1  0.26277428  0.83201613  0.98357259  1
  C  C356  1  0.49605098  0.86436197  0.79908490  1
  H  H357  1  0.15532837  0.88770431  0.79355646  1
  C  C358  1  0.04264974  0.86588360  0.83910226  1
  H  H359  1  0.32646451  0.82035042  0.97492300  1
  C  C360  1  0.16105958  0.54162752  0.83659678  1
  C  C361  1  0.41306647  0.86850799  0.76524583  1
  H  H362  1  0.31629974  0.96329468  0.97741121  1
  O  O363  1  0.37204031  0.81387105  0.75655793  1
  C  C364  1  0.23105682  0.87741187  0.94388015  1
  C  C365  1  0.06193317  0.98291522  0.82604665  1
  C  C366  1  0.32999486  0.94807710  0.92320411  1
  C  C367  1  0.15479158  0.89086535  0.95508568  1
  H  H368  1  0.36926351  0.89478876  0.79496304  1
  H  H369  1  0.16075222  0.82235147  0.84868709  1
  O  O370  1  0.22344909  0.66259452  0.96255637  1
  O  O371  1  0.00761987  0.64562315  0.82042983  1
  C  C372  1  0.01731516  0.92629860  0.85180895  1
  O  O373  1  0.28257921  0.91033641  0.89350788  1
  H  H374  1  0.22517862  0.63658990  0.92185787  1
  H  H375  1  0.12873307  0.92886141  0.92527990  1
  H  H376  1  0.01115963  0.76784831  0.97866243  1
  C  C377  1  0.37682523  0.99551919  0.87746795  1
  H  H378  1  0.19315608  0.54176723  0.96177304  1
  Zn  Zn379  1  0.44074075  0.89355566  0.94964385  1
  C  C380  1  0.12063992  0.84777985  0.80882526  1
  H  H381  1  0.02197062  0.69500853  0.93521823  1
  H  H382  1  0.39927629  0.97280857  0.82960962  1
  H  H383  1  0.11505218  0.81839894  0.76114270  1
  O  O384  1  0.41905617  0.76143149  0.97972964  1
  C  C385  1  0.02278893  0.99871875  0.76281696  1
  O  O386  1  0.19436215  0.58691185  0.83146649  1
  H  H387  1  0.01916644  0.76850685  0.84292053  1
  H  H388  1  0.87659248  0.35031563  0.07667611  1
  C  C389  1  0.71534124  0.48515097  0.02641595  1
  C  C390  1  0.90633600  0.01958501  0.05895601  1
  C  C391  1  0.80271642  0.09704597  0.06780985  1
  H  H392  1  0.94618585  0.05641193  0.07872861  1
  H  H393  1  0.62636892  0.41292977  0.06529403  1
  C  C394  1  0.69354082  0.00326495  0.01928722  1
  C  C395  1  0.82950712  0.03047410  0.05371108  1
  H  H396  1  0.55799861  0.23998982  0.13597704  1
  H  H397  1  0.81149155  0.12541669  0.02236598  1
  C  C398  1  0.89203933  0.39755243  0.09736499  1
  C  C399  1  0.76298753  0.43779506  0.04569031  1
  H  H400  1  0.69515799  0.02960670  0.18825420  1
  H  H401  1  0.76855446  0.32544543  0.10727170  1
  C  C402  1  0.82758963  0.44360980  0.08570997  1
  O  O403  1  0.87203022  0.32823145  0.21504013  1
  H  H404  1  0.68238812  0.32653234  0.16366925  1
  H  H405  1  0.74548071  0.38781835  0.16565806  1
  C  C406  1  0.79612908  0.30571924  0.21440541  1
  C  C407  1  0.68606185  0.08058235  0.18664038  1
  H  H408  1  0.83271870  0.11388612  0.11591425  1
  O  O409  1  0.73602917  0.11041280  0.21458386  1
  H  H410  1  0.73900184  0.09842203  0.07690561  1
  H  H411  1  0.60012523  0.07630001  0.10868635  1
  H  H412  1  0.75282065  0.39441051  0.01950906  1
  O  O413  1  0.59995478  0.37291391  0.06631479  1
  C  C414  1  0.80384931  0.07206117  0.24191341  1
  H  H415  1  0.57322010  0.26987212  0.06886698  1
  H  H416  1  0.94601014  0.41277168  0.07836932  1
  H  H417  1  0.56151554  0.09415237  0.18939521  1
  H  H418  1  0.90032733  0.39504072  0.15497225  1
  H  H419  1  0.83574701  0.27287650  0.03480427  1
  H  H420  1  0.80894761  0.25543769  0.20370253  1
  C  C421  1  0.61131449  0.10095173  0.15593106  1
  C  C422  1  0.82016909  0.01313596  0.21417825  1
  O  O423  1  0.99852153  0.28453322  0.08952742  1
  O  O424  1  0.57295784  0.22894246  0.09022035  1
  H  H425  1  0.78056264  0.00171822  0.17338584  1
  C  C426  1  0.74402771  0.33784918  0.16081103  1
  H  H427  1  0.61110901  0.15166517  0.14372637  1
  O  O428  1  0.90966506  0.20830330  0.06131753  1
  H  H429  1  0.98856765  0.15698606  0.19339347  1
  C  C430  1  0.95504917  0.24626841  0.07567940  1
  H  H431  1  0.71115000  0.14364402  0.00371326  1
  O  O432  1  0.79408417  0.29878881  0.01774752  1
  H  H433  1  0.66151149  0.21359210  0.02698994  1
  C  C434  1  0.62976726  0.17354368  0.46382363  1
  C  C435  1  0.92311025  0.31142828  0.27255648  1
  O  O436  1  0.63004660  0.47089661  0.43419775  1
  O  O437  1  0.58160215  0.11452434  0.36611957  1
  C  C438  1  0.91768160  0.05572995  0.31517511  1
  C  C439  1  0.91908270  0.46560393  0.45793698  1
  C  C440  1  0.93704790  0.20594359  0.42529721  1
  C  C441  1  0.95742201  0.24583678  0.37071140  1
  C  C442  1  0.83761979  0.48519178  0.27632607  1
  Zn  Zn443  1  0.67005811  0.22177301  0.38193371  1
  H  H444  1  0.81132319  0.01253022  0.36843715  1
  H  H445  1  0.63354222  0.49293514  0.30104802  1
  H  H446  1  0.90502306  0.36711407  0.39625277  1
  C  C447  1  0.57225487  0.16145561  0.40605381  1
  H  H448  1  0.92108282  0.08701248  0.42044710  1
  C  C449  1  0.85477857  0.09160058  0.28808322  1
  H  H450  1  0.85537441  0.23199010  0.30409816  1
  H  H451  1  0.85959885  0.29639338  0.43537923  1
  C  C452  1  0.73194006  0.29665837  0.27133726  1
  C  C453  1  0.79819667  0.02981961  0.47764003  1
  O  O454  1  0.66885702  0.32074330  0.26904658  1
  H  H455  1  0.99145030  0.12452559  0.36912542  1
  H  H456  1  0.88048582  0.18518329  0.42954367  1
  C  C457  1  0.90672284  0.26191244  0.31435575  1
  H  H458  1  0.79097679  0.46034868  0.37340596  1
  H  H459  1  0.84525542  0.13856132  0.30933520  1
  H  H460  1  0.81379411  0.34553422  0.37199523  1
  H  H461  1  0.95702614  0.34080294  0.46717790  1
  C  C462  1  0.99726277  0.33673291  0.27619255  1
  O  O463  1  0.83935343  0.08711169  0.49890790  1
  C  C464  1  0.81487999  0.38613371  0.47646611  1
  H  H465  1  0.97901715  0.19310020  0.46305512  1
  C  C466  1  0.85231672  0.34735648  0.41850393  1
  O  O467  1  0.75275693  0.26428977  0.32270270  1
  C  C468  1  0.98925288  0.47621997  0.49477256  1
  C  C469  1  0.84328905  0.47564366  0.34809365  1
  C  C470  1  0.96394169  0.08141972  0.37713944  1
  C  C471  1  0.91361841  0.48124424  0.38497268  1
  H  H472  1  0.54949579  0.33773272  0.49858232  1
  H  H473  1  0.61561827  0.48341917  0.48200030  1
  C  C474  1  0.84977286  0.44210276  0.49625056  1
  H  H475  1  0.71448426  0.32786229  0.48680286  1
  O  O476  1  0.51456470  0.19233910  0.39288276  1
  H  H477  1  0.68867551  0.07954419  0.46411129  1
  C  C478  1  0.98149870  0.49888134  0.34591182  1
  C  C479  1  0.66935353  0.11838857  0.49926735  1
  H  H480  1  0.77846482  0.48407349  0.25490371  1
  H  H481  1  0.98839827  0.47263941  0.55073299  1
  C  C482  1  0.74217306  0.37046354  0.50502173  1
  H  H483  1  0.63260329  0.09567337  0.53808189  1
  H  H484  1  0.72058099  0.13282386  0.53160066  1
  Zn  Zn485  1  0.60955992  0.37970259  0.60608302  1
  H  H486  1  0.92692292  0.38394965  0.59035317  1
  O  O487  1  0.75423651  0.25080819  0.54944140  1
  C  C488  1  0.98091957  0.44920551  0.69521846  1
  H  H489  1  0.72031925  0.48924646  0.62015515  1
  C  C490  1  0.91039869  0.02934906  0.57670166  1
  O  O491  1  0.53560940  0.02905651  0.54195282  1
  H  H492  1  0.61032427  0.20960918  0.50003945  1
  C  C493  1  0.93770659  0.13526855  0.57839694  1
  C  C494  1  0.89131208  0.08736628  0.55139284  1
  C  C495  1  0.85434389  0.49930033  0.72406590  1
  C  C496  1  0.74669173  0.46149836  0.57975021  1
  H  H497  1  0.88825086  0.06947343  0.68241631  1
  C  C498  1  0.98333211  0.36324517  0.57507161  1
  O  O499  1  0.82707418  0.26329966  0.64921349  1
  C  C500  1  0.86272439  0.38348999  0.70300986  1
  H  H501  1  0.90224941  0.34618108  0.69694056  1
  C  C502  1  0.90149314  0.44606474  0.70981985  1
  H  H503  1  0.77509414  0.02149010  0.53138530  1
  O  O504  1  0.53610522  0.26432108  0.56545964  1
  C  C505  1  0.81613185  0.48176253  0.54516964  1
  C  C506  1  0.78921604  0.25684084  0.60018392  1
  C  C507  1  0.71256688  0.40722460  0.55812260  1
  C  C508  1  0.83221971  0.08586851  0.70475518  1
  H  H509  1  0.93442743  0.18268633  0.55701332  1
  C  C510  1  0.52682073  0.43960137  0.65067464  1
  H  H511  1  0.79494914  0.49362975  0.74087580  1
  H  H512  1  0.82140339  0.37969370  0.65941414  1
  C  C513  1  0.77080245  0.03900137  0.70547147  1
  C  C514  1  0.99583362  0.33473546  0.51302625  1
  C  C515  1  0.53991820  0.49593152  0.61009347  1
  C  C516  1  0.52392357  0.32027588  0.54770107  1
  C  C517  1  0.96764464  0.01188812  0.62089871  1
  Zn  Zn518  1  0.71859591  0.12425829  0.72599187  1
  C  C519  1  0.99101980  0.12234991  0.62975151  1
  C  C520  1  0.83425494  0.14925049  0.74241095  1
  H  H521  1  0.87389070  0.18379290  0.72129165  1
  C  C522  1  0.64577966  0.39285714  0.77342471  1
  H  H523  1  0.56812745  0.46057017  0.86262344  1
  C  C524  1  0.64006304  0.23178922  0.87769889  1
  H  H525  1  0.93299986  0.26972464  0.81940556  1
  H  H526  1  0.67256052  0.27070058  0.89600015  1
  C  C527  1  0.64080602  0.17943070  0.92029926  1
  O  O528  1  0.84505281  0.30827807  0.87224924  1
  C  C529  1  0.55675485  0.18258841  0.80508478  1
  O  O530  1  0.78488636  0.40244493  0.86555842  1
  O  O531  1  0.59901205  0.28250871  0.76466073  1
  C  C532  1  0.65010693  0.33240746  0.77806412  1
  O  O533  1  0.97236909  0.43810759  0.94804136  1
  C  C534  1  0.60142836  0.06833708  0.95594388  1
  O  O535  1  0.97336841  0.26013273  0.78637183  1
  C  C536  1  0.59993834  0.12161117  0.90728685  1
  C  C537  1  0.94749345  0.48742175  0.94120101  1
  C  C538  1  0.55117134  0.12974335  0.84766979  1
  C  C539  1  0.62434160  0.41818843  0.95355139  1
  H  H540  1  0.69880489  0.41895520  0.78627745  1
  C  C541  1  0.59866183  0.23457674  0.81427439  1
  H  H542  1  0.70656450  0.31101567  0.79266232  1
  C  C543  1  0.50028988  0.07664193  0.82372540  1
  H  H544  1  0.99865865  0.09085578  0.82433872  1
  C  C545  1  0.96292162  0.12358959  0.92340901  1
  H  H546  1  0.98322752  0.12792857  0.97632563  1
  H  H547  1  0.94503028  0.03413444  0.90030799  1
  C  C548  1  0.81526886  0.35553746  0.86977449  1
  H  H549  1  0.68227961  0.41111327  0.93110605  1
  H  H550  1  0.72533218  0.06864308  0.93973618  1
  C  C551  1  0.88411121  0.12360081  0.90859516  1
  H  H552  1  0.81260000  0.31092967  0.97430912  1
  O  O553  1  0.65033928  0.48149941  0.98697632  1
  O  O554  1  0.81779165  0.12341128  0.90065361  1
  C  C555  1  0.67607937  0.04517177  0.96854470  1
  H  H556  1  0.84482257  0.14396452  0.79688736  1
  C  C557  1  0.56008744  0.42174389  0.89860075  1
  H  H558  1  0.50338506  0.43174777  0.92685953  1
  H  H559  1  0.55739985  0.37711456  0.87075214  1
  H  H560  1  0.80019424  0.47474903  0.91137728  1
  H  H561  1  0.99578670  0.17077407  0.82951452  1
  H  H562  1  0.88208245  0.01271712  0.83393306  1
  C  C563  1  0.53836106  0.04525105  0.99896620  1
  H  H564  1  0.59455556  0.42187969  0.76280336  1
  H  H565  1  0.53214172  0.18529284  0.75295452  1
  H  H566  1  0.52503286  0.03174600  0.84488825  1
  O  O567  1  0.56473429  0.31750278  0.97318504  1
  C  C568  1  0.69270002  0.18934733  0.98326970  1
  C  C569  1  0.59170672  0.36383496  0.99348414  1
  H  H570  1  0.74806471  0.21879747  0.97200508  1
  H  H571  1  0.82858736  0.37363796  0.75043517  1
  H  H572  1  0.97111141  0.29511912  0.75776845  1
  C  C573  1  0.55755703  0.65624495  0.08398238  1
  C  C574  1  0.54138213  0.67587013  0.20224216  1
  H  H575  1  0.50817804  0.88215828  0.05307068  1
  H  H576  1  0.61603401  0.57547177  0.20767639  1
  H  H577  1  0.60506047  0.88797352  0.20852480  1
  H  H578  1  0.87561162  0.81824445  0.07617153  1
  C  C579  1  0.94193898  0.75468113  0.14297021  1
  C  C580  1  0.51718322  0.64456705  0.14523902  1
  H  H581  1  0.91028523  0.87679388  0.00675266  1
  C  C582  1  0.81503444  0.61534072  0.12752128  1
  C  C583  1  0.60918899  0.71360298  0.20921887  1
  C  C584  1  0.87456331  0.90891018  0.20840402  1
  H  H585  1  0.51881905  0.75070712  0.10849925  1
  C  C586  1  0.87454855  0.77964285  0.11311932  1
  H  H587  1  0.93836738  0.71983250  0.18425857  1
  H  H588  1  0.59355073  0.80798789  0.12001930  1
  C  C589  1  0.84089183  0.50296232  0.11651827  1
  H  H590  1  0.72567136  0.70873747  0.01765918  1
  C  C591  1  0.73110917  0.54257293  0.05453446  1
  C  C592  1  0.68011487  0.58260452  0.22243644  1
  H  H593  1  0.74387372  0.84032573  0.06444192  1
  C  C594  1  0.62776468  0.68953506  0.08699781  1
  C  C595  1  0.62978517  0.97915756  0.06225968  1
  H  H596  1  0.97367655  0.52537820  0.07429023  1
  H  H597  1  0.53581080  0.63439276  0.03705076  1
  H  H598  1  0.76265865  0.64376708  0.12861182  1
  C  C599  1  0.65015392  0.94134232  0.12102955  1
  H  H600  1  0.99111542  0.69831325  0.02269606  1
  H  H601  1  0.50590459  0.81338020  0.16848955  1
  C  C602  1  0.87600445  0.97409949  0.24009363  1
  H  H603  1  0.69930174  0.62628233  0.20070792  1
  C  C604  1  0.80331707  0.92277127  0.02429792  1
  C  C605  1  0.51385283  0.93410300  0.15200023  1
  C  C606  1  0.93939291  0.96235981  0.03878255  1
  C  C607  1  0.88304528  0.91708028  0.02636961  1
  C  C608  1  0.79349109  0.55152627  0.09901518  1
  C  C609  1  0.65885934  0.71703019  0.14866069  1
  C  C610  1  0.59291295  0.91608176  0.16418874  1
  C  C611  1  0.52897259  0.79924592  0.11570517  1
  C  C612  1  0.73624849  0.74134277  0.14482201  1
  C  C613  1  0.80074471  0.76072806  0.13185409  1
  H  H614  1  0.71012778  0.93517057  0.13067037  1
  H  H615  1  0.69473995  0.58042389  0.04035408  1
  H  H616  1  0.70977457  0.54357500  0.19638942  1
  H  H617  1  0.86021413  0.63628310  0.09271154  1
  H  H618  1  0.84358888  0.61345342  0.17910788  1
  C  C619  1  0.90537352  0.50551266  0.23962730  1
  H  H620  1  0.91907345  0.90193357  0.16801178  1
  C  C621  1  0.91074490  0.51182123  0.16333903  1
  C  C622  1  0.55051110  0.99854743  0.05004925  1
  H  H623  1  0.82009014  0.89584563  0.18193244  1
  C  C624  1  0.98008103  0.51947717  0.12953097  1
  C  C625  1  0.66094819  0.70778022  0.01713040  1
  C  C626  1  0.77651088  0.98364417  0.03400763  1
  H  H627  1  0.50701797  0.66415472  0.24667161  1
  H  H628  1  0.99228986  0.86013310  0.05291551  1
  H  H629  1  0.64565338  0.75705048  0.00345163  1
  H  H630  1  0.68277811  0.88671686  0.01965539  1
  C  C631  1  0.74361587  0.86959367  0.01725929  1
  H  H632  1  0.88026959  0.54061467  0.01930284  1
  C  C633  1  0.69201340  0.57965570  0.30101426  1
  H  H634  1  0.88904593  0.60838587  0.27976545  1
  C  C635  1  0.93001967  0.99698746  0.28955973  1
  H  H636  1  0.62902531  0.96095561  0.30888602  1
  C  C637  1  0.97709758  0.92164677  0.38723489  1
  C  C638  1  0.87065742  0.74544056  0.35178886  1
  C  C639  1  0.72767341  0.88609595  0.33422397  1
  C  C640  1  0.78104468  0.66425126  0.45327935  1
  C  C641  1  0.90416160  0.89720796  0.40650908  1
  C  C642  1  0.72495611  0.62742688  0.33780393  1
  H  H643  1  0.55277954  0.97834312  0.37189599  1
  H  H644  1  0.70949803  0.55658729  0.49660968  1
  C  C645  1  0.52134351  0.80095729  0.37867617  1
  C  C646  1  0.55016046  0.85756812  0.36338417  1
  C  C647  1  0.89277873  0.85285254  0.45896133  1
  C  C648  1  0.99141143  0.95898218  0.32603199  1
  C  C649  1  0.50981629  0.70118388  0.43526423  1
  H  H650  1  0.59294063  0.87311063  0.39858051  1
  H  H651  1  0.60062450  0.71799236  0.32362553  1
  H  H652  1  0.61710330  0.79011988  0.28051928  1
  C  C653  1  0.84384455  0.69182781  0.31741595  1
  C  C654  1  0.66627805  0.51886725  0.40246516  1
  C  C655  1  0.97924033  0.51531952  0.27438464  1
  H  H656  1  0.85602269  0.91034968  0.37277070  1
  C  C657  1  0.90564756  0.64873019  0.30793253  1
  C  C658  1  0.66628690  0.52601475  0.33034271  1
  C  C659  1  0.73455379  0.61926787  0.40989985  1
  H  H660  1  0.74358534  0.95958315  0.42024809  1
  C  C661  1  0.93663579  0.76111670  0.36374089  1
  C  C662  1  0.63368621  0.74102523  0.27911672  1
  H  H663  1  0.83333543  0.82974384  0.45880373  1
  C  C664  1  0.56531373  0.96128924  0.31831058  1
  C  C665  1  0.55631021  0.65815818  0.48071793  1
  C  C666  1  0.75948838  0.68451445  0.30577575  1
  O  O667  1  0.72647602  0.84744647  0.37519922  1
  C  C668  1  0.70364001  0.56573231  0.43926836  1
  C  C669  1  0.72070391  0.73445457  0.28284630  1
  C  C670  1  0.53049832  0.89661595  0.30993547  1
  H  H671  1  0.61971416  0.66268805  0.47106316  1
  O  O672  1  0.54717777  0.76913188  0.42890874  1
  C  C673  1  0.98110788  0.66296326  0.32900777  1
  H  H674  1  0.84265734  0.67212091  0.43485659  1
  H  H675  1  0.76055032  0.71289559  0.45420208  1
  H  H676  1  0.75634599  0.76903215  0.26066632  1
  C  C677  1  0.78419900  0.99869060  0.41945221  1
  H  H678  1  0.54166236  0.60971939  0.47598841  1
  H  H679  1  0.52648963  0.91950501  0.48493215  1
  H  H680  1  0.88798202  0.87300157  0.25040723  1
  H  H681  1  0.54233779  0.99279534  0.27947938  1
  O  O682  1  0.72419758  0.92478737  0.29290284  1
  H  H683  1  0.71595100  0.56144597  0.67174960  1
  H  H684  1  0.91744994  0.64317037  0.62415997  1
  H  H685  1  0.51587727  0.58385662  0.65922738  1
  C  C686  1  0.88513124  0.55518578  0.72184996  1
  C  C687  1  0.92213318  0.68108497  0.58496702  1
  C  C688  1  0.66180025  0.64853387  0.68975685  1
  C  C689  1  0.79409868  0.82413954  0.59212840  1
  H  H690  1  0.67411123  0.82974770  0.60895780  1
  C  C691  1  0.78570714  0.70684344  0.62377169  1
  C  C692  1  0.96304204  0.55991478  0.70047701  1
  H  H693  1  0.78946227  0.65864275  0.64326642  1
  C  C694  1  0.72618983  0.79799677  0.60791821  1
  O  O695  1  0.65173995  0.71710230  0.66284567  1
  H  H696  1  0.98024934  0.70489853  0.58638714  1
  C  C697  1  0.85753475  0.72681013  0.60173256  1
  C  C698  1  0.68354144  0.59565011  0.64372979  1
  H  H699  1  0.89156903  0.56144510  0.51889988  1
  C  C700  1  0.86542025  0.79023296  0.59123821  1
  O  O701  1  0.99558458  0.70887175  0.73268200  1
  H  H702  1  0.79009056  0.64872173  0.50669124  1
  H  H703  1  0.77246276  0.90196660  0.51969256  1
  C  C704  1  0.97658352  0.94413113  0.63812234  1
  H  H705  1  0.77057377  0.92454373  0.60765860  1
  H  H706  1  0.86083760  0.90659712  0.57077273  1
  H  H707  1  0.85315046  0.74489010  0.70979004  1
  H  H708  1  0.62939513  0.57353675  0.62340327  1
  H  H709  1  0.54930094  0.66912782  0.53819604  1
  C  C710  1  0.71729259  0.74030956  0.63845130  1
  H  H711  1  0.98484118  0.60775869  0.70153091  1
  H  H712  1  0.82513746  0.57238499  0.58579131  1
  C  C713  1  0.94495009  0.80966206  0.57452504  1
  C  C714  1  0.79907976  0.89137411  0.57063840  1
  H  H715  1  0.87986317  0.99366920  0.55454628  1
  H  H716  1  0.92418959  0.92457311  0.66008565  1
  H  H717  1  0.71931052  0.61026497  0.59764457  1
  C  C718  1  0.86327854  0.53790465  0.56393438  1
  H  H719  1  0.71550251  0.66358282  0.71782221  1
  H  H720  1  0.90628405  0.52416791  0.60623661  1
  H  H721  1  0.92080058  0.65776397  0.53532137  1
  O  O722  1  0.83803607  0.61176986  0.74415485  1
  O  O723  1  0.73839207  0.99404796  0.69013698  1
  O  O724  1  0.57970501  0.51145827  0.56361204  1
  C  C725  1  0.60334731  0.62531013  0.74829736  1
  H  H726  1  0.99810951  0.91842378  0.59013607  1
  C  C727  1  0.95206844  0.84403577  0.50982129  1
  H  H728  1  0.85608283  0.99852826  0.92504406  1
  C  C729  1  0.89962258  0.88172482  0.88704473  1
  C  C730  1  0.81644515  0.52524860  0.91556582  1
  O  O731  1  0.87418015  0.76865370  0.91048562  1
  C  C732  1  0.87005850  0.66066978  0.95161906  1
  C  C733  1  0.87402936  0.66126613  0.77158740  1
  C  C734  1  0.94223243  0.93623961  0.87762267  1
  H  H735  1  0.56536829  0.62048857  0.88950107  1
  H  H736  1  0.86104299  0.64789315  0.82821156  1
  C  C737  1  0.90229248  0.99846415  0.88580699  1
  H  H738  1  0.63726007  0.67598375  0.97553439  1
  O  O739  1  0.80651576  0.65022192  0.93813169  1
  C  C740  1  0.89981724  0.72553677  0.95385194  1
  O  O741  1  0.53575340  0.81978036  0.78110842  1
  C  C742  1  0.92714705  0.82245544  0.88654219  1
  H  H743  1  0.83622832  0.88452705  0.90132324  1
  O  O744  1  0.91676738  0.61484822  0.97569637  1
  C  C745  1  0.89390384  0.54249328  0.96164132  1
  H  H746  1  0.54921353  0.56487994  0.93803939  1
  H  H747  1  0.88687086  0.76051737  0.79296900  1
  C  C748  1  0.84980437  0.72824694  0.76423256  1
  O  O749  1  0.56833173  0.66732370  0.78024348  1
  H  H750  1  0.78817343  0.73408414  0.78324421  1
  H  H751  1  0.81896941  0.53798499  0.86010858  1
  O  O752  1  0.57160902  0.60640951  0.93444868  1
  C  C753  1  0.98634008  0.72152560  0.97125283  1
  C  C754  1  0.96690151  0.67428755  0.77684612  1
  O  O755  1  0.51721317  0.90410794  0.83661577  1
  H  H756  1  0.76565819  0.55213449  0.94050365  1
  C  C757  1  0.99802210  0.81372284  0.85631325  1
  Zn  Zn758  1  0.97841505  0.55270728  0.87081111  1
  H  H759  1  0.74997560  0.84061947  0.96744485  1
  H  H760  1  0.86994332  0.75169694  0.99971755  1
  H  H761  1  0.99671227  0.89362195  0.96648177  1
  H  H762  1  0.96364840  0.97970445  0.75056585  1
  O  O763  1  0.59178272  0.57313489  0.76125239  1
