# generated using pymatgen
data_ZnH22C24(NO)4
_symmetry_space_group_name_H-M   'P 1'
_cell_length_a   31.26248660
_cell_length_b   27.81634445
_cell_length_c   21.45172044
_cell_angle_alpha   90.00000000
_cell_angle_beta   90.00000000
_cell_angle_gamma   90.00000000
_symmetry_Int_Tables_number   1
_chemical_formula_structural   ZnH22C24(NO)4
_chemical_formula_sum   'Zn32 H704 C768 N128 O128'
_cell_volume   18654.58975700
_cell_formula_units_Z   32
loop_
 _symmetry_equiv_pos_site_id
 _symmetry_equiv_pos_as_xyz
  1  'x, y, z'
loop_
 _atom_site_type_symbol
 _atom_site_label
 _atom_site_symmetry_multiplicity
 _atom_site_fract_x
 _atom_site_fract_y
 _atom_site_fract_z
 _atom_site_occupancy
  H  H0  1  0.11686525  0.07677544  0.11683911  1
  C  C1  1  0.05363075  0.04289564  0.11317256  1
  C  C2  1  0.09687984  0.04385640  0.12109547  1
  H  H3  1  0.03648438  0.07614747  0.09998836  1
  C  C4  1  0.21054258  0.18506041  0.18042807  1
  C  C5  1  0.20310428  0.15691534  0.12643489  1
  H  H6  1  0.19771086  0.11694149  0.12981305  1
  C  C7  1  0.20957382  0.17800964  0.06852954  1
  C  C8  1  0.21770963  0.23514856  0.17891094  1
  C  C9  1  0.21821866  0.22820856  0.06537654  1
  H  H10  1  0.20835324  0.15535272  0.02556441  1
  C  C11  1  0.15942057  0.00024728  0.15761893  1
  O  O12  1  0.19492995  0.11883441  0.24340249  1
  O  O13  1  0.18359196  0.03212153  0.15595728  1
  C  C14  1  0.20400536  0.16031566  0.24036507  1
  H  H15  1  0.21049302  0.03069742  0.02749478  1
  H  H16  1  0.14148440  0.07600166  0.01813742  1
  H  H17  1  0.00366884  0.05906570  0.22097871  1
  H  H18  1  0.14610099  0.23038970  0.05392983  1
  H  H19  1  0.01619671  0.05232522  0.00159973  1
  H  H20  1  0.25906303  0.08835457  0.07998320  1
  C  C21  1  0.42121940  0.00663544  0.10440187  1
  C  C22  1  0.39603443  0.02887988  0.15018869  1
  N  N23  1  0.45466788  0.02882478  0.07741922  1
  N  N24  1  0.41812309  0.10793615  0.14680946  1
  C  C25  1  0.39105139  0.07896984  0.16618056  1
  Zn  Zn26  1  0.47987891  0.09673390  0.11687107  1
  H  H27  1  0.41799531  0.14391715  0.15581671  1
  C  C28  1  0.35189981  0.09741726  0.20355259  1
  N  N29  1  0.47327223  0.13504245  0.03261199  1
  C  C30  1  0.45475501  0.18285019  0.02351396  1
  H  H31  1  0.33985080  0.13240918  0.18698928  1
  C  C32  1  0.29224685  0.09350693  0.06281321  1
  H  H33  1  0.36253265  0.04025148  0.05789674  1
  H  H34  1  0.31143622  0.09035410  0.10555829  1
  O  O35  1  0.42553993  0.22277052  0.17669961  1
  H  H36  1  0.29880593  0.12816585  0.04088315  1
  H  H37  1  0.49113368  0.16336272  0.19559311  1
  H  H38  1  0.32533824  0.07209895  0.20315988  1
  N  N39  1  0.34202837  0.03438050  0.02354928  1
  C  C40  1  0.44753940  0.23991824  0.22052224  1
  C  C41  1  0.30480176  0.05661839  0.01320785  1
  C  C42  1  0.47937265  0.22060822  0.03908180  1
  H  H43  1  0.30027005  0.21515331  0.03660252  1
  H  H44  1  0.40855984  0.24774900  0.09551782  1
  C  C45  1  0.30372563  0.24951782  0.00769487  1
  C  C46  1  0.14105555  0.26377099  0.02262007  1
  H  H47  1  0.21771138  0.25702143  0.22240836  1
  C  C48  1  0.21799274  0.25594424  0.12102215  1
  C  C49  1  0.21975440  0.25179812  0.00154981  1
  H  H50  1  0.13819105  0.29645328  0.05061445  1
  C  C51  1  0.02344789  0.32864772  0.20168560  1
  H  H52  1  0.04818002  0.34375319  0.16953144  1
  H  H53  1  0.01937948  0.29102117  0.18682423  1
  H  H54  1  0.21924716  0.29620609  0.11777878  1
  H  H55  1  0.22917015  0.42074156  0.13197164  1
  C  C56  1  0.49010285  0.46099418  0.18821858  1
  H  H57  1  0.46825703  0.43546964  0.16537304  1
  H  H58  1  0.30523928  0.45836532  0.23712403  1
  C  C59  1  0.32900493  0.42964744  0.23677999  1
  H  H60  1  0.39253729  0.34121927  0.09419472  1
  C  C61  1  0.40308956  0.26994977  0.05209676  1
  C  C62  1  0.35301755  0.35370592  0.18632361  1
  O  O63  1  0.25309502  0.42965705  0.15858957  1
  C  C64  1  0.32368563  0.39292092  0.19003986  1
  H  H65  1  0.43685591  0.49526239  0.24699351  1
  O  O66  1  0.47051508  0.27527047  0.21288512  1
  H  H67  1  0.47016673  0.25776524  0.03039836  1
  H  H68  1  0.30860493  0.27888645  0.04358617  1
  O  O69  1  0.27446316  0.36325245  0.11259437  1
  H  H70  1  0.34338562  0.32564241  0.15502343  1
  O  O71  1  0.37360384  0.41286251  0.04748087  1
  C  C72  1  0.28347558  0.39186259  0.15207797  1
  C  C73  1  0.39790240  0.31956532  0.05212297  1
  H  H74  1  0.41000336  0.32054089  0.22482141  1
  C  C75  1  0.38901166  0.35093387  0.22378087  1
  H  H76  1  0.08588687  0.16824614  0.38736075  1
  H  H77  1  0.21783453  0.06499708  0.32222903  1
  H  H78  1  0.12197607  0.10188503  0.33977072  1
  N  N79  1  0.20720532  0.17955556  0.41355492  1
  C  C80  1  0.19754926  0.15976303  0.35251243  1
  C  C81  1  0.07168651  0.16008707  0.43343242  1
  C  C82  1  0.17559453  0.17293655  0.44341855  1
  C  C83  1  0.02842057  0.15393370  0.44537065  1
  O  O84  1  0.21242544  0.18673280  0.29369663  1
  N  N85  1  0.23979267  0.04583000  0.34929286  1
  H  H86  1  0.16311943  0.14489926  0.35633673  1
  C  C87  1  0.05080455  0.03307274  0.28789796  1
  C  C88  1  0.03364956  0.20195101  0.29971367  1
  C  C89  1  0.11689975  0.07089435  0.30803372  1
  C  C90  1  0.11539253  0.02081964  0.33818650  1
  H  H91  1  0.22073158  0.12860941  0.35493445  1
  C  C92  1  0.03668698  0.03958177  0.47273799  1
  O  O93  1  0.05964147  0.16923868  0.29190890  1
  H  H94  1  0.00678158  0.15680648  0.40465725  1
  O  O95  1  0.04221220  0.24418220  0.30955572  1
  N  N96  1  0.06931315  0.07665569  0.29100195  1
  H  H97  1  0.02436521  0.07654411  0.45493777  1
  C  C98  1  0.14640191  0.16910471  0.49307404  1
  C  C99  1  0.09910399  0.16117223  0.48681037  1
  C  C100  1  0.00916903  0.00033987  0.48200432  1
  N  N101  1  0.14108993  0.00980957  0.38405615  1
  C  C102  1  0.08056255  0.03666889  0.48608266  1
  H  H103  1  0.10467602  0.06887456  0.48350187  1
  C  C104  1  0.00654269  0.02986509  0.25889753  1
  H  H105  1  0.05923058  0.10940316  0.27164938  1
  H  H106  1  0.13380243  0.07114542  0.26113202  1
  H  H107  1  0.24706363  0.05091337  0.48530781  1
  O  O108  1  0.48053957  0.06103327  0.26824973  1
  H  H109  1  0.37440850  0.02694285  0.49336753  1
  H  H110  1  0.44980675  0.05254868  0.46246841  1
  C  C111  1  0.36359618  0.03317797  0.33120709  1
  C  C112  1  0.38372085  0.03106351  0.44217252  1
  C  C113  1  0.48043782  0.05699171  0.33735594  1
  C  C114  1  0.28070455  0.05356888  0.36353626  1
  C  C115  1  0.29694687  0.10653750  0.35302860  1
  C  C116  1  0.44970033  0.17292359  0.40272942  1
  C  C117  1  0.36747878  0.13864681  0.47127241  1
  C  C118  1  0.43757901  0.04471958  0.36305266  1
  C  C119  1  0.45262477  0.15065889  0.46709042  1
  C  C120  1  0.42591384  0.15168817  0.35189151  1
  H  H121  1  0.40888426  0.11898505  0.36242963  1
  C  C122  1  0.42773275  0.17052251  0.29195433  1
  C  C123  1  0.44902172  0.21459758  0.28660999  1
  C  C124  1  0.42657746  0.03985150  0.42664206  1
  C  C125  1  0.35198884  0.02453322  0.39547876  1
  C  C126  1  0.40566755  0.04446521  0.31479565  1
  C  C127  1  0.30380760  0.01759459  0.39692862  1
  C  C128  1  0.47308831  0.21624837  0.39534846  1
  H  H129  1  0.33073501  0.10223056  0.34072957  1
  H  H130  1  0.29524625  0.12937587  0.39682152  1
  H  H131  1  0.33867463  0.02853590  0.29189731  1
  H  H132  1  0.36819973  0.15988375  0.42721764  1
  H  H133  1  0.27827667  0.12341708  0.31459755  1
  H  H134  1  0.41402409  0.05179652  0.26596784  1
  H  H135  1  0.35302132  0.10457769  0.46511760  1
  C  C136  1  0.47293382  0.23474793  0.33508925  1
  H  H137  1  0.41121827  0.15419448  0.25196600  1
  H  H138  1  0.48969748  0.23425606  0.43534626  1
  H  H139  1  0.35699514  0.10172354  0.25233107  1
  C  C140  1  0.49313663  0.15282172  0.49865801  1
  C  C141  1  0.41395058  0.13260984  0.49316059  1
  O  O142  1  0.25315193  0.08488364  0.48917054  1
  C  C143  1  0.00622977  0.46380404  0.32426818  1
  C  C144  1  0.16117232  0.46944107  0.49716503  1
  O  O145  1  0.07634186  0.46611339  0.46815893  1
  H  H146  1  0.08703701  0.26494068  0.42821997  1
  H  H147  1  0.15977483  0.27809611  0.48531562  1
  H  H148  1  0.07318764  0.45440994  0.34226487  1
  C  C149  1  0.04124084  0.43775650  0.34828230  1
  C  C150  1  0.03987085  0.39644568  0.38386747  1
  H  H151  1  0.07274193  0.38556986  0.39583030  1
  C  C152  1  0.01571540  0.32592471  0.44462939  1
  C  C153  1  0.09350841  0.29559736  0.46147104  1
  C  C154  1  0.06006514  0.32760085  0.47556520  1
  C  C155  1  0.13249864  0.30191035  0.49058300  1
  C  C156  1  0.00846625  0.36226320  0.40004784  1
  H  H157  1  0.03237090  0.33102783  0.25113201  1
  H  H158  1  0.23098853  0.46267592  0.49203141  1
  H  H159  1  0.15297822  0.45900698  0.45057497  1
  C  C160  1  0.40616688  0.31478982  0.35208010  1
  H  H161  1  0.37005758  0.45737424  0.40100969  1
  C  C162  1  0.36769986  0.43177594  0.26763014  1
  C  C163  1  0.46886231  0.43218379  0.29167510  1
  C  C164  1  0.37897039  0.42231508  0.42559328  1
  C  C165  1  0.44198695  0.35374069  0.34204466  1
  C  C166  1  0.33041386  0.27318334  0.44956929  1
  C  C167  1  0.39772310  0.39294166  0.26234909  1
  H  H168  1  0.40859768  0.40960634  0.39974419  1
  H  H169  1  0.49231389  0.26755418  0.32053753  1
  H  H170  1  0.41123037  0.29638130  0.40021842  1
  C  C171  1  0.43856162  0.39249917  0.30067241  1
  H  H172  1  0.37370527  0.33102449  0.35113058  1
  C  C173  1  0.38769343  0.43016061  0.49470935  1
  O  O174  1  0.32604440  0.31040511  0.45712371  1
  H  H175  1  0.41084548  0.28769356  0.31439704  1
  N  N176  1  0.47571948  0.35066333  0.37761991  1
  H  H177  1  0.37470713  0.46307320  0.29506816  1
  H  H178  1  0.35490249  0.39440617  0.41803245  1
  H  H179  1  0.48133216  0.32556971  0.41289338  1
  C  C180  1  0.46831630  0.47881651  0.25251860  1
  C  C181  1  0.08449479  0.15008303  0.54790929  1
  H  H182  1  0.10717406  0.14708789  0.58748012  1
  C  C183  1  0.08298035  0.20544113  0.69415267  1
  C  C184  1  0.08828590  0.15540716  0.68966483  1
  H  H185  1  0.11892095  0.13950458  0.67313464  1
  H  H186  1  0.10828922  0.23247505  0.68339532  1
  C  C187  1  0.03990761  0.21945340  0.70555040  1
  C  C188  1  0.05753394  0.12232912  0.71564252  1
  C  C189  1  0.04034042  0.14770750  0.55869555  1
  C  C190  1  0.17561861  0.21128010  0.59224523  1
  H  H191  1  0.20673775  0.12921314  0.61641968  1
  H  H192  1  0.02663156  0.14338385  0.60677225  1
  C  C193  1  0.16755611  0.17195334  0.55641614  1
  N  N194  1  0.18240492  0.12944212  0.58296814  1
  C  C195  1  0.21415066  0.16940729  0.73422952  1
  H  H196  1  0.17947995  0.09854577  0.55883633  1
  C  C197  1  0.21636506  0.22277461  0.72635335  1
  H  H198  1  0.19268057  0.20711473  0.63720151  1
  C  C199  1  0.01552574  0.14026338  0.73199216  1
  O  O200  1  0.15660878  0.03781586  0.54359963  1
  H  H201  1  0.05112529  0.07045263  0.60951416  1
  C  C202  1  0.20379706  0.01942174  0.74456038  1
  C  C203  1  0.06854865  0.03470110  0.69584059  1
  C  C204  1  0.07600258  0.04666558  0.62846032  1
  C  C205  1  0.00704865  0.18880299  0.72634428  1
  H  H206  1  0.10641583  0.06523854  0.61701419  1
  C  C207  1  0.20812062  0.07290331  0.74443654  1
  C  C208  1  0.06258963  0.07136416  0.73890795  1
  H  H209  1  0.07486302  0.01418690  0.59997545  1
  C  C210  1  0.23111482  0.00888886  0.62977574  1
  C  C211  1  0.24910165  0.09210747  0.72259983  1
  H  H212  1  0.24144722  0.04737356  0.63354074  1
  H  H213  1  0.16480531  0.24774598  0.57734746  1
  H  H214  1  0.20413098  0.00977044  0.59564419  1
  H  H215  1  0.02953673  0.23181926  0.50105767  1
  C  C216  1  0.01156555  0.15125827  0.50663532  1
  C  C217  1  0.25119107  0.14192431  0.71705088  1
  H  H218  1  0.25375387  0.18460999  0.50212492  1
  N  N219  1  0.49431881  0.14647151  0.56046305  1
  H  H220  1  0.48176006  0.03387398  0.70856805  1
  H  H221  1  0.27686786  0.07068662  0.70952039  1
  H  H222  1  0.27928859  0.16183329  0.70197324  1
  N  N223  1  0.40792028  0.09166335  0.67373797  1
  H  H224  1  0.40182158  0.05741538  0.65873939  1
  Zn  Zn225  1  0.45524648  0.10502961  0.61224166  1
  C  C226  1  0.34231260  0.17817950  0.63266865  1
  C  C227  1  0.32712483  0.13554394  0.60686333  1
  H  H228  1  0.34234247  0.10072718  0.62228330  1
  O  O229  1  0.29626323  0.05214395  0.55982922  1
  C  C230  1  0.29493356  0.13809535  0.56184893  1
  C  C231  1  0.27691629  0.18239786  0.54129145  1
  H  H232  1  0.36723258  0.17367007  0.66663940  1
  H  H233  1  0.38860866  0.09613507  0.56726936  1
  N  N234  1  0.41410086  0.10821705  0.54501927  1
  C  C235  1  0.28229134  0.08943027  0.53936184  1
  C  C236  1  0.29054783  0.22496595  0.56906443  1
  C  C237  1  0.32260368  0.22126916  0.61642935  1
  C  C238  1  0.46693649  0.16669817  0.72908423  1
  N  N239  1  0.47817208  0.15638659  0.67098857  1
  C  C240  1  0.40135816  0.10914288  0.73069608  1
  H  H241  1  0.43013392  0.23130442  0.62984942  1
  N  N242  1  0.49357242  0.04470678  0.60823826  1
  C  C243  1  0.41096483  0.24809707  0.58784216  1
  H  H244  1  0.34537196  0.15807758  0.50561451  1
  H  H245  1  0.39357335  0.21754454  0.56448653  1
  O  O246  1  0.25927575  0.23696899  0.70345800  1
  C  C247  1  0.42350734  0.15628994  0.74667706  1
  C  C248  1  0.20310281  0.47097719  0.52032213  1
  C  C249  1  0.20994585  0.48854840  0.58276899  1
  O  O250  1  0.02169998  0.41699925  0.71858916  1
  C  C251  1  0.02522789  0.27069182  0.69532265  1
  C  C252  1  0.08096082  0.48324819  0.52106759  1
  O  O253  1  0.05827936  0.30672917  0.68912214  1
  H  H254  1  0.10821323  0.39995765  0.58627656  1
  H  H255  1  0.06035608  0.43303324  0.63009457  1
  O  O256  1  0.18519451  0.36709053  0.62259204  1
  C  C257  1  0.06573979  0.42040184  0.67990673  1
  H  H258  1  0.16175257  0.39078994  0.61470723  1
  H  H259  1  0.04178010  0.33661863  0.70061698  1
  C  C260  1  0.10285451  0.37168550  0.55042595  1
  C  C261  1  0.18024385  0.34048594  0.56638993  1
  C  C262  1  0.13649385  0.33942176  0.53508427  1
  H  H263  1  0.08289213  0.38404427  0.68096549  1
  O  O264  1  0.20970858  0.31468647  0.55329546  1
  N  N265  1  0.09840485  0.45587918  0.69431277  1
  H  H266  1  0.04088276  0.39573885  0.51964815  1
  C  C267  1  0.12478088  0.42976159  0.71501556  1
  O  O268  1  0.18876470  0.25092345  0.73281535  1
  C  C269  1  0.00533670  0.25698411  0.52142966  1
  H  H270  1  0.02299674  0.27926611  0.55527677  1
  H  H271  1  0.24029283  0.29139298  0.65914655  1
  H  H272  1  0.23695455  0.39421349  0.57214604  1
  O  O273  1  0.05196916  0.49352117  0.55781192  1
  C  C274  1  0.12881150  0.48463699  0.53946844  1
  H  H275  1  0.14390925  0.31538690  0.71475008  1
  C  C276  1  0.06540900  0.36775387  0.51481833  1
  C  C277  1  0.16192287  0.41997512  0.74983452  1
  H  H278  1  0.49883867  0.34223724  0.58375680  1
  Zn  Zn279  1  0.35588429  0.49566340  0.65730555  1
  H  H280  1  0.43569882  0.26626740  0.55424007  1
  H  H281  1  0.27560528  0.25909628  0.55623462  1
  C  C282  1  0.27137398  0.40248760  0.56378864  1
  C  C283  1  0.41298820  0.46889089  0.52287555  1
  H  H284  1  0.34585340  0.37751220  0.51305413  1
  C  C285  1  0.46328339  0.40159506  0.54350459  1
  H  H286  1  0.29142492  0.37049513  0.57744491  1
  H  H287  1  0.25597066  0.43919103  0.74463815  1
  H  H288  1  0.27595324  0.40816203  0.51355834  1
  C  C289  1  0.25441518  0.48629219  0.60959009  1
  C  C290  1  0.44239357  0.38432338  0.73066721  1
  C  C291  1  0.30949046  0.30199135  0.66375181  1
  C  C292  1  0.26765295  0.28622577  0.69303532  1
  N  N293  1  0.38553216  0.43719567  0.69005148  1
  C  C294  1  0.48000743  0.48344239  0.58789801  1
  H  H295  1  0.44677756  0.37721308  0.51211670  1
  N  N296  1  0.31892147  0.44388122  0.63364123  1
  C  C297  1  0.28327860  0.44581639  0.60519027  1
  H  H298  1  0.47120601  0.38074816  0.69844428  1
  Zn  Zn299  1  0.36204697  0.38783805  0.63034751  1
  C  C300  1  0.38179901  0.28536748  0.61772645  1
  N  N301  1  0.36678504  0.40020351  0.53038254  1
  H  H302  1  0.26175712  0.31206429  0.72961824  1
  H  H303  1  0.29959886  0.37610754  0.68798084  1
  H  H304  1  0.42077387  0.34823313  0.60000836  1
  N  N305  1  0.31533403  0.34820030  0.66917651  1
  H  H306  1  0.42117424  0.35517782  0.71544312  1
  C  C307  1  0.49066530  0.38050630  0.58707509  1
  N  N308  1  0.39438552  0.32988358  0.62088865  1
  C  C309  1  0.42108317  0.43399516  0.72342913  1
  C  C310  1  0.45285665  0.45261542  0.54906624  1
  C  C311  1  0.34053454  0.27001966  0.63756966  1
  C  C312  1  0.19768096  0.13303177  0.89932678  1
  H  H313  1  0.19061363  0.16150553  0.86159976  1
  O  O314  1  0.11847942  0.18416405  0.88566587  1
  C  C315  1  0.16365051  0.11937021  0.93946168  1
  C  C316  1  0.12355151  0.14676238  0.93640620  1
  C  C317  1  0.05614842  0.06532231  0.80593238  1
  C  C318  1  0.05056453  0.11003607  0.84658651  1
  C  C319  1  0.02263909  0.21724908  0.95085288  1
  H  H320  1  0.09396805  0.20062788  0.90537983  1
  H  H321  1  0.04503728  0.10050453  0.89756106  1
  C  C322  1  0.23641726  0.10812730  0.90148567  1
  H  H323  1  0.04151293  0.19510674  0.98583039  1
  O  O324  1  0.09419746  0.14053687  0.96930575  1
  H  H325  1  0.07940586  0.13562768  0.84396461  1
  C  C326  1  0.20665308  0.05830700  0.99183591  1
  C  C327  1  0.16909833  0.02865526  0.85456778  1
  H  H328  1  0.19827978  0.03939769  0.88003382  1
  H  H329  1  0.02159125  0.13172937  0.83768872  1
  N  N330  1  0.05401188  0.02305118  0.83226378  1
  H  H331  1  0.15127031  0.06159899  0.84264835  1
  H  H332  1  0.14837780  0.17416966  0.76536025  1
  H  H333  1  0.13967343  0.08152423  0.76885872  1
  H  H334  1  0.15128134  0.00633547  0.89097480  1
  C  C335  1  0.18133188  0.00154264  0.79738906  1
  C  C336  1  0.24046958  0.07197316  0.94886280  1
  H  H337  1  0.05039071  0.01258484  0.87656059  1
  C  C338  1  0.16890089  0.08453958  0.98976135  1
  C  C339  1  0.17004642  0.10092339  0.75609701  1
  C  C340  1  0.17314959  0.15001057  0.75276564  1
  H  H341  1  0.25388707  0.04058513  0.82828481  1
  Zn  Zn342  1  0.37903013  0.00339696  0.96807579  1
  H  H343  1  0.25809113  0.11211059  0.86162514  1
  C  C344  1  0.48238144  0.02989298  0.84497384  1
  H  H345  1  0.46069623  0.06262624  0.82932744  1
  N  N346  1  0.43183140  0.02261470  0.92856079  1
  C  C347  1  0.28311424  0.04819705  0.95605553  1
  H  H348  1  0.37259347  0.08104869  0.96821870  1
  N  N349  1  0.39318034  0.10999553  0.98023871  1
  C  C350  1  0.38478007  0.15633283  0.97558797  1
  C  C351  1  0.33903841  0.16992816  0.95243883  1
  H  H352  1  0.38213793  0.09859195  0.82569141  1
  H  H353  1  0.32447362  0.14095962  0.92365984  1
  H  H354  1  0.33984207  0.20290382  0.92270759  1
  C  C355  1  0.29635665  0.01898877  0.90265529  1
  H  H356  1  0.29294886  0.23041197  0.79527830  1
  C  C357  1  0.32885298  0.23257495  0.79423698  1
  C  C358  1  0.34879351  0.18921013  0.77938789  1
  C  C359  1  0.39429983  0.19337241  0.76647396  1
  H  H360  1  0.32934355  0.15640424  0.77565230  1
  H  H361  1  0.39513784  0.24637350  0.89164580  1
  H  H362  1  0.49394014  0.00837220  0.80312110  1
  C  C363  1  0.41518725  0.23953330  0.77385119  1
  H  H364  1  0.31695451  0.17476585  0.99139863  1
  C  C365  1  0.27043865  0.00715747  0.84224056  1
  C  C366  1  0.38420772  0.08443492  0.77893914  1
  H  H367  1  0.36993366  0.04630425  0.76837276  1
  H  H368  1  0.44961671  0.24220509  0.76638431  1
  H  H369  1  0.33169923  0.24866449  0.97455788  1
  Zn  Zn370  1  0.45331259  0.07078745  0.99034480  1
  C  C371  1  0.41432204  0.19223335  0.99292230  1
  C  C372  1  0.40237419  0.24475118  0.99380834  1
  C  C373  1  0.18037291  0.26932610  0.98065005  1
  C  C374  1  0.03688682  0.26416543  0.93245371  1
  N  N375  1  0.17591120  0.29037860  0.92508519  1
  H  H376  1  0.15163936  0.30069357  0.89908119  1
  C  C377  1  0.07554863  0.28461294  0.96397932  1
  C  C378  1  0.01584960  0.29401653  0.88773880  1
  O  O379  1  0.05646308  0.42090913  0.81051751  1
  H  H380  1  0.02960112  0.32975301  0.87779301  1
  N  N381  1  0.20476762  0.36255535  0.80478570  1
  Zn  Zn382  1  0.22159368  0.31377483  0.87080626  1
  H  H383  1  0.22166339  0.38889172  0.82097256  1
  C  C384  1  0.16877030  0.37121662  0.77423803  1
  C  C385  1  0.13829521  0.32952430  0.76195080  1
  H  H386  1  0.14419730  0.29981152  0.79702548  1
  C  C387  1  0.18892741  0.46476280  0.76264778  1
  C  C388  1  0.02453885  0.41262936  0.78175993  1
  H  H389  1  0.10398611  0.33991477  0.76109167  1
  O  O390  1  0.08851141  0.32439452  0.95712582  1
  H  H391  1  0.00945729  0.40680295  0.90673121  1
  C  C392  1  0.23563630  0.46813328  0.76391477  1
  O  O393  1  0.09780587  0.25017852  0.99981039  1
  H  H394  1  0.32690577  0.33711544  0.77347960  1
  C  C395  1  0.44017791  0.47448548  0.75317960  1
  H  H396  1  0.48862594  0.40668727  0.93836376  1
  C  C397  1  0.49680092  0.42859035  0.89707833  1
  H  H398  1  0.45076907  0.37830749  0.77983059  1
  C  C399  1  0.39551371  0.26800741  0.93491608  1
  H  H400  1  0.43290085  0.42543267  0.86051338  1
  O  O401  1  0.32673015  0.31990963  0.81585577  1
  O  O402  1  0.36075185  0.40806120  0.94697544  1
  C  C403  1  0.26137408  0.26093773  0.97674380  1
  H  H404  1  0.41062293  0.31433811  0.79834033  1
  H  H405  1  0.38183171  0.33738769  0.89489038  1
  C  C406  1  0.39168137  0.33971047  0.99369667  1
  C  C407  1  0.37266378  0.39132999  0.99657521  1
  C  C408  1  0.34795020  0.27827170  0.80206143  1
  C  C409  1  0.46558719  0.43982839  0.85198175  1
  N  N410  1  0.26626047  0.28440023  0.92410364  1
  C  C411  1  0.39261555  0.27958940  0.79127420  1
  C  C412  1  0.39031029  0.31781538  0.93542506  1
  C  C413  1  0.47672064  0.46592999  0.79718954  1
  H  H414  1  0.29122284  0.29351678  0.89626249  1
  H  H415  1  0.06468705  0.66495235  0.06569628  1
  O  O416  1  0.14841383  0.73085886  0.14793585  1
  C  C417  1  0.13349121  0.72847906  0.09500866  1
  O  O418  1  0.03926989  0.68018756  0.04836082  1
  C  C419  1  0.01645589  0.69223914  0.10438543  1
  O  O420  1  0.02188033  0.67225680  0.15195518  1
  C  C421  1  0.04369414  0.58241016  0.23763761  1
  O  O422  1  0.13331583  0.68284339  0.06264403  1
  H  H423  1  0.14206238  0.66404658  0.09982966  1
  C  C424  1  0.01878745  0.53463119  0.24504261  1
  O  O425  1  0.24421400  0.66682903  0.23163551  1
  H  H426  1  0.06242182  0.58203663  0.19418782  1
  H  H427  1  0.00750496  0.51607524  0.15368712  1
  N  N428  1  0.00626372  0.50638700  0.19780069  1
  H  H429  1  0.02151852  0.61285194  0.23422056  1
  C  C430  1  0.37572585  0.67367729  0.15549101  1
  N  N431  1  0.45715560  0.69045622  0.16615568  1
  C  C432  1  0.40346935  0.54854455  0.16853023  1
  C  C433  1  0.44826913  0.55986337  0.17490666  1
  C  C434  1  0.42106500  0.69531891  0.15277989  1
  H  H435  1  0.35195110  0.69908028  0.17580256  1
  C  C436  1  0.46604260  0.61178192  0.04339583  1
  C  C437  1  0.48400226  0.54782428  0.12947661  1
  C  C438  1  0.46697471  0.57762083  0.23154985  1
  H  H439  1  0.44025410  0.62208139  0.07690054  1
  C  C440  1  0.45717990  0.73392697  0.13139271  1
  H  H441  1  0.45055471  0.59694381  0.00051837  1
  H  H442  1  0.36537242  0.66571459  0.10744159  1
  C  C443  1  0.37838267  0.54524347  0.22194889  1
  H  H444  1  0.34496260  0.53442104  0.22068761  1
  H  H445  1  0.38987346  0.53795020  0.12113056  1
  C  C446  1  0.46235485  0.73478067  0.05424241  1
  H  H447  1  0.37630255  0.63973560  0.18674107  1
  C  C448  1  0.49545371  0.57535779  0.07733132  1
  C  C449  1  0.49959757  0.72994433  0.02294130  1
  N  N450  1  0.42455677  0.74535429  0.02462973  1
  H  H451  1  0.39978623  0.74655853  0.05429614  1
  H  H452  1  0.48207165  0.64607686  0.02942278  1
  H  H453  1  0.01390674  0.75256577  0.00203141  1
  C  C454  1  0.11355551  0.99885385  0.14309318  1
  C  C455  1  0.02874464  0.99902288  0.12134346  1
  H  H456  1  0.02892441  0.92130029  0.14965075  1
  C  C457  1  0.11783009  0.76881767  0.05372621  1
  H  H458  1  0.13007662  0.82614830  0.12230884  1
  C  C459  1  0.12032730  0.81788101  0.07405206  1
  C  C460  1  0.09019875  0.95598475  0.15614422  1
  H  H461  1  0.10627684  0.92497405  0.17954434  1
  O  O462  1  0.17090939  0.95002528  0.18709859  1
  N  N463  1  0.19206023  0.83498817  0.16127479  1
  C  C464  1  0.04760696  0.95441535  0.14081107  1
  H  H465  1  0.08739251  0.98026893  0.04698681  1
  H  H466  1  0.10662234  0.89006440  0.05373220  1
  H  H467  1  0.20190534  0.89360992  0.11111851  1
  C  C468  1  0.10978053  0.85441239  0.03210553  1
  C  C469  1  0.22138317  0.87176582  0.14404291  1
  C  C470  1  0.19748202  0.85689933  0.21286986  1
  C  C471  1  0.18068811  0.95574758  0.24802150  1
  H  H472  1  0.17166898  0.76710235  0.23019718  1
  H  H473  1  0.00377518  0.99343571  0.23622285  1
  C  C474  1  0.11277927  0.96922118  0.01305406  1
  H  H475  1  0.13748584  0.99581885  0.01261238  1
  H  H476  1  0.24268214  0.84648838  0.12069735  1
  H  H477  1  0.20763160  0.88637546  0.01195065  1
  C  C478  1  0.48409361  0.81714638  0.14945585  1
  C  C479  1  0.49776496  0.89560157  0.01398111  1
  C  C480  1  0.35367579  0.81844053  0.12406597  1
  H  H481  1  0.49770042  0.81746252  0.09697736  1
  C  C482  1  0.48769066  0.85769685  0.18784296  1
  H  H483  1  0.34159988  0.90129926  0.08982186  1
  H  H484  1  0.39753199  0.84419493  0.17563216  1
  H  H485  1  0.30737847  0.98874801  0.12766675  1
  C  C486  1  0.39184633  0.97342244  0.23444604  1
  C  C487  1  0.32409865  0.87589962  0.05904976  1
  O  O488  1  0.36053109  0.77923957  0.14460585  1
  O  O489  1  0.37681375  0.85944788  0.14858437  1
  H  H490  1  0.30332196  0.75062078  0.05353405  1
  H  H491  1  0.40984512  0.93693069  0.06098604  1
  C  C492  1  0.30137413  0.78954910  0.04087857  1
  C  C493  1  0.36786221  0.99148738  0.18255044  1
  H  H494  1  0.45662554  0.93794522  0.10347083  1
  C  C495  1  0.32492605  0.82610907  0.07204090  1
  C  C496  1  0.32796483  0.97389772  0.16554856  1
  C  C497  1  0.42327227  0.95173240  0.10544870  1
  N  N498  1  0.48764431  0.94083560  0.01420340  1
  H  H499  1  0.40610560  0.93345196  0.14735098  1
  C  C500  1  0.44918802  0.77671499  0.23797308  1
  H  H501  1  0.43784165  0.85826133  0.03200822  1
  C  C502  1  0.31467765  0.93661669  0.20446172  1
  C  C503  1  0.46254071  0.77660420  0.17332845  1
  H  H504  1  0.28212727  0.92326754  0.19631224  1
  H  H505  1  0.42488994  0.98481959  0.24059930  1
  C  C506  1  0.47331969  0.85880957  0.24941178  1
  C  C507  1  0.29730951  0.89142102  0.01212050  1
  H  H508  1  0.29438458  0.92997755  0.00158251  1
  C  C509  1  0.04754542  0.55336999  0.39898268  1
  O  O510  1  0.09301200  0.67695272  0.40167736  1
  H  H511  1  0.07628700  0.53209007  0.39407277  1
  C  C512  1  0.09758380  0.71846635  0.41525459  1
  H  H513  1  0.13848533  0.70257819  0.30945774  1
  C  C514  1  0.04458880  0.57981617  0.45363316  1
  H  H515  1  0.18376776  0.70825710  0.45014128  1
  C  C516  1  0.20980684  0.70512120  0.48683282  1
  H  H517  1  0.21461765  0.62679797  0.47325303  1
  C  C518  1  0.22761915  0.65957667  0.49662830  1
  C  C519  1  0.01377652  0.55149071  0.35443345  1
  C  C520  1  0.21864260  0.65135347  0.25696043  1
  H  H521  1  0.06771129  0.58261299  0.49157119  1
  O  O522  1  0.07566243  0.73854243  0.47084238  1
  C  C523  1  0.01407491  0.51391748  0.30431978  1
  C  C524  1  0.00588180  0.60765592  0.45949186  1
  C  C525  1  0.13953705  0.74001794  0.31666946  1
  H  H526  1  0.21760775  0.74390158  0.36056131  1
  H  H527  1  0.05877706  0.71070491  0.48081293  1
  H  H528  1  0.06740279  0.58849382  0.27806017  1
  H  H529  1  0.26392455  0.73295708  0.40910717  1
  N  N530  1  0.46575432  0.62643793  0.42215111  1
  C  C531  1  0.37663995  0.54500129  0.33706039  1
  O  O532  1  0.34110554  0.53135254  0.34156907  1
  C  C533  1  0.39971100  0.55577243  0.27903637  1
  O  O534  1  0.40431458  0.55019816  0.40129996  1
  N  N535  1  0.41201131  0.70497895  0.35319491  1
  H  H536  1  0.40474732  0.67463608  0.32913614  1
  H  H537  1  0.43175403  0.62880042  0.42183546  1
  C  C538  1  0.44042037  0.57819136  0.28291969  1
  H  H539  1  0.46872714  0.51707357  0.36978267  1
  C  C540  1  0.45688462  0.54364049  0.40453534  1
  Zn  Zn541  1  0.47299084  0.68623465  0.36255008  1
  H  H542  1  0.45269986  0.58874143  0.32980400  1
  C  C543  1  0.34085407  0.70449525  0.40507174  1
  C  C544  1  0.48550852  0.58435030  0.41843126  1
  H  H545  1  0.34463209  0.53530800  0.46031655  1
  H  H546  1  0.45542396  0.52106943  0.44875232  1
  C  C547  1  0.38619458  0.72472005  0.39515701  1
  C  C548  1  0.37902109  0.54592890  0.46797166  1
  H  H549  1  0.32728959  0.71291542  0.45143031  1
  H  H550  1  0.34212024  0.66583750  0.39544145  1
  H  H551  1  0.47196679  0.67417759  0.25126230  1
  N  N552  1  0.47684294  0.74440953  0.41825392  1
  H  H553  1  0.38051902  0.58350008  0.48334323  1
  N  N554  1  0.49672545  0.67064584  0.27963668  1
  H  H555  1  0.31578421  0.71890735  0.37235387  1
  H  H556  1  0.48621856  0.50675138  0.27617640  1
  H  H557  1  0.43807289  0.74383317  0.26176064  1
  Zn  Zn558  1  0.20296726  0.99740768  0.37871006  1
  C  C559  1  0.12145194  0.75390715  0.37662101  1
  C  C560  1  0.07580847  0.99853496  0.31909755  1
  H  H561  1  0.01010976  0.96878075  0.38929417  1
  C  C562  1  0.00635912  0.89350612  0.36375278  1
  O  O563  1  0.02524186  0.77609818  0.29743691  1
  C  C564  1  0.15833014  0.77446443  0.27784463  1
  C  C565  1  0.01097656  0.80580366  0.32978308  1
  C  C566  1  0.02348897  0.93911147  0.36220954  1
  C  C567  1  0.12546977  0.80077346  0.40152126  1
  C  C568  1  0.02725448  0.85656582  0.33098237  1
  C  C569  1  0.06072749  0.94614341  0.32505752  1
  H  H570  1  0.13616662  0.98057802  0.41128092  1
  H  H571  1  0.14547653  0.87414083  0.37810227  1
  C  C572  1  0.14280557  0.83695769  0.36383180  1
  N  N573  1  0.19239732  0.92928523  0.35311259  1
  Zn  Zn574  1  0.21797976  0.90445827  0.43042269  1
  C  C575  1  0.16135756  0.82150317  0.30649341  1
  C  C576  1  0.18983812  0.91279365  0.29673693  1
  C  C577  1  0.06706851  0.86298547  0.30069590  1
  C  C578  1  0.08502711  0.90869744  0.29672556  1
  C  C579  1  0.18523277  0.86264271  0.27658423  1
  H  H580  1  0.08004830  0.83130569  0.27858390  1
  H  H581  1  0.11585015  0.91762422  0.27533375  1
  H  H582  1  0.11305248  0.81013423  0.44444091  1
  C  C583  1  0.21984106  0.79541652  0.48845215  1
  H  H584  1  0.15194817  0.97141306  0.27151637  1
  C  C585  1  0.23422024  0.80382604  0.42646969  1
  N  N586  1  0.24534741  0.97053671  0.43442642  1
  N  N587  1  0.23772564  0.84439908  0.39846060  1
  C  C588  1  0.24594277  0.76098723  0.38267982  1
  H  H589  1  0.24922505  0.85967393  0.35814607  1
  C  C590  1  0.02468125  0.95392463  0.49978396  1
  H  H591  1  0.20626915  0.98491773  0.25074288  1
  H  H592  1  0.30799979  0.90678686  0.47552841  1
  C  C593  1  0.40094533  0.76398254  0.43101636  1
  H  H594  1  0.34841101  0.94210948  0.43653859  1
  C  C595  1  0.47651039  0.89995337  0.29174087  1
  H  H596  1  0.36653299  0.86511667  0.33215339  1
  H  H597  1  0.31817801  0.81006247  0.42034768  1
  O  O598  1  0.45979828  0.89342850  0.35844344  1
  H  H599  1  0.39784854  0.91513502  0.30423433  1
  C  C600  1  0.31891820  0.94393699  0.46290412  1
  H  H601  1  0.44338651  0.81273549  0.32534836  1
  C  C602  1  0.45186384  0.92910203  0.47669713  1
  C  C603  1  0.44531612  0.77241751  0.43462087  1
  O  O604  1  0.34324105  0.84261748  0.32569251  1
  C  C605  1  0.37128555  0.78786541  0.47830647  1
  N  N606  1  0.42314522  0.93337385  0.44175940  1
  C  C607  1  0.45259818  0.81663579  0.27411120  1
  C  C608  1  0.28575878  0.97770999  0.42954336  1
  C  C609  1  0.45198704  0.93167591  0.39180825  1
  O  O610  1  0.48892350  0.93799553  0.27602299  1
  C  C611  1  0.31929177  0.87025967  0.28067500  1
  C  C612  1  0.37815117  0.93349684  0.26814114  1
  H  H613  1  0.45589899  0.96820830  0.37003949  1
  C  C614  1  0.33054450  0.81006621  0.46801605  1
  H  H615  1  0.26835573  0.77428728  0.34239876  1
  C  C616  1  0.46513288  0.81407343  0.47328126  1
  H  H617  1  0.45457555  0.85046744  0.45396301  1
  H  H618  1  0.49989983  0.81385898  0.47101463  1
  O  O619  1  0.28700519  0.85063922  0.26106814  1
  C  C620  1  0.33784508  0.91327807  0.25139897  1
  C  C621  1  0.06030491  0.67900713  0.67282562  1
  O  O622  1  0.04471528  0.63307138  0.67862756  1
  C  C623  1  0.08123365  0.70043613  0.62010614  1
  H  H624  1  0.09261579  0.67736149  0.58240851  1
  C  C625  1  0.09563995  0.74854696  0.62115923  1
  O  O626  1  0.02493548  0.62397463  0.56277721  1
  H  H627  1  0.03333487  0.62916539  0.63428392  1
  C  C628  1  0.05091469  0.71030600  0.72321545  1
  C  C629  1  0.24290090  0.57591632  0.65551716  1
  H  H630  1  0.18388769  0.51729557  0.66897254  1
  H  H631  1  0.24990591  0.60463864  0.61867587  1
  C  C632  1  0.13385212  0.50311933  0.59863034  1
  H  H633  1  0.20795846  0.57296708  0.65959964  1
  H  H634  1  0.10685844  0.51102733  0.63166962  1
  C  C635  1  0.17534062  0.50363491  0.62162631  1
  C  C636  1  0.22912037  0.74611653  0.51480374  1
  H  H637  1  0.25489846  0.58737375  0.70172547  1
  C  C638  1  0.26521026  0.52744855  0.64411199  1
  H  H639  1  0.47828572  0.52409880  0.58408369  1
  N  N640  1  0.30178193  0.53383820  0.67474723  1
  C  C641  1  0.45675175  0.71159205  0.58440610  1
  H  H642  1  0.35057448  0.55956646  0.58048789  1
  N  N643  1  0.37449267  0.53353730  0.57511155  1
  C  C644  1  0.42177828  0.68762803  0.62115985  1
  H  H645  1  0.42728046  0.65344896  0.64704983  1
  H  H646  1  0.39747582  0.67126770  0.58977968  1
  N  N647  1  0.47385368  0.68333074  0.54165134  1
  H  H648  1  0.40434993  0.71601058  0.65126268  1
  C  C649  1  0.39394753  0.51757688  0.52368765  1
  O  O650  1  0.32444235  0.60793328  0.56237002  1
  H  H651  1  0.31675467  0.69186672  0.58864194  1
  C  C652  1  0.29002640  0.60842882  0.53403492  1
  C  C653  1  0.28725206  0.69483282  0.55901447  1
  H  H654  1  0.31552865  0.55924685  0.70273878  1
  N  N655  1  0.39176250  0.53522809  0.71154152  1
  H  H656  1  0.38084188  0.56697364  0.70245415  1
  H  H657  1  0.46695694  0.65203705  0.52191898  1
  H  H658  1  0.47425059  0.70513406  0.70899872  1
  C  C659  1  0.46134953  0.74054802  0.71831428  1
  O  O660  1  0.34622846  0.66167128  0.70749359  1
  C  C661  1  0.31335486  0.67051333  0.70194803  1
  C  C662  1  0.26608721  0.73877462  0.55374765  1
  C  C663  1  0.26547629  0.65596726  0.53181558  1
  C  C664  1  0.42386587  0.52205319  0.74887404  1
  O  O665  1  0.27502499  0.57269133  0.50699101  1
  H  H666  1  0.11574730  0.76226021  0.58434884  1
  C  C667  1  0.06506871  0.75788056  0.72608272  1
  C  C668  1  0.08766510  0.77723609  0.67401849  1
  H  H669  1  0.05335275  0.82638658  0.56807181  1
  H  H670  1  0.02353788  0.84234171  0.63865225  1
  H  H671  1  0.03487314  0.88936575  0.58165355  1
  C  C672  1  0.18651786  0.81614427  0.59605665  1
  C  C673  1  0.04845050  0.85559087  0.60591670  1
  C  C674  1  0.10832909  0.82600426  0.67966904  1
  C  C675  1  0.08754156  0.86414804  0.64611310  1
  H  H676  1  0.17242544  0.89740876  0.68641322  1
  N  N677  1  0.10114448  0.90637462  0.65871945  1
  H  H678  1  0.09341865  0.93667180  0.63739269  1
  H  H679  1  0.04822732  0.96176813  0.68818859  1
  N  N680  1  0.06647417  0.98579476  0.71445143  1
  H  H681  1  0.15055553  0.82294356  0.59845787  1
  N  N682  1  0.16145254  0.87785433  0.72784875  1
  C  C683  1  0.14643996  0.82884424  0.71873638  1
  H  H684  1  0.19168379  0.77812450  0.61046265  1
  N  N685  1  0.22959299  0.94407865  0.70433948  1
  Zn  Zn686  1  0.11921437  0.93475978  0.74326938  1
  H  H687  1  0.20880835  0.83843643  0.62763905  1
  O  O688  1  0.16085041  0.95934651  0.53448616  1
  H  H689  1  0.18339947  0.90173684  0.53584428  1
  C  C690  1  0.21773339  0.98911738  0.69374186  1
  H  H691  1  0.15410653  0.75257129  0.73270448  1
  C  C692  1  0.16610200  0.78866382  0.74340142  1
  H  H693  1  0.08184348  0.91962232  0.53430766  1
  H  H694  1  0.24123630  0.91762353  0.67433014  1
  C  C695  1  0.09428551  0.99310038  0.50982466  1
  H  H696  1  0.00236251  0.92424209  0.50513168  1
  C  C697  1  0.06814586  0.95205843  0.51604454  1
  C  C698  1  0.14085937  0.99855641  0.53405112  1
  N  N699  1  0.19348514  0.87294285  0.50781600  1
  C  C700  1  0.19805630  0.82976708  0.52848014  1
  C  C701  1  0.47470193  0.75672384  0.60485902  1
  H  H702  1  0.41509786  0.77030457  0.55265936  1
  H  H703  1  0.25684840  0.98819249  0.60915515  1
  H  H704  1  0.49763378  0.92413917  0.66409473  1
  H  H705  1  0.34209822  0.94898601  0.62101265  1
  C  C706  1  0.43805764  0.81975328  0.67188533  1
  C  C707  1  0.44700311  0.93441139  0.59482466  1
  C  C708  1  0.45821337  0.77452984  0.66777477  1
  C  C709  1  0.41448862  0.82830376  0.72689571  1
  O  O710  1  0.32107300  0.97387537  0.73247171  1
  H  H711  1  0.45520772  0.81267179  0.52506626  1
  H  H712  1  0.39569610  0.86140624  0.72811569  1
  C  C713  1  0.47201060  0.93224137  0.53557476  1
  O  O714  1  0.27111556  0.89671548  0.60964992  1
  C  C715  1  0.46422706  0.93305898  0.65591218  1
  C  C716  1  0.32419218  0.83778529  0.57637458  1
  H  H717  1  0.43807992  0.84609808  0.63258727  1
  C  C718  1  0.38474943  0.78786158  0.54201547  1
  C  C719  1  0.30614853  0.83270544  0.51597639  1
  H  H720  1  0.28080357  0.77031900  0.57641141  1
  C  C721  1  0.36009198  0.81021000  0.58848653  1
  O  O722  1  0.30806691  0.86454221  0.68150604  1
  C  C723  1  0.40142152  0.93924785  0.58254196  1
  H  H724  1  0.38785334  0.93740805  0.53550898  1
  H  H725  1  0.36798848  0.81325480  0.63808692  1
  C  C726  1  0.37447860  0.94729090  0.63275869  1
  C  C727  1  0.35908095  0.96640403  0.74371480  1
  C  C728  1  0.39151342  0.95428088  0.69297032  1
  C  C729  1  0.43491496  0.94568821  0.70316240  1
  C  C730  1  0.29958462  0.86893706  0.62670504  1
  H  H731  1  0.33034198  0.96292668  0.50598683  1
  H  H732  1  0.27347237  0.84844528  0.50278456  1
  H  H733  1  0.16390286  0.58021219  0.81247912  1
  H  H734  1  0.01879166  0.66303480  0.96577865  1
  H  H735  1  0.10634952  0.71800430  0.97727756  1
  C  C736  1  0.18267136  0.54690985  0.80244239  1
  O  O737  1  0.01423735  0.72844271  0.89518176  1
  C  C738  1  0.22779923  0.54702799  0.80652939  1
  O  O739  1  0.01191414  0.64996676  0.92569697  1
  H  H740  1  0.02907483  0.69589762  0.76145552  1
  O  O741  1  0.23408225  0.62817014  0.83450155  1
  C  C742  1  0.16279257  0.50493162  0.78076128  1
  H  H743  1  0.12858361  0.50477104  0.77637995  1
  C  C744  1  0.25500057  0.50742495  0.79031098  1
  C  C745  1  0.25100114  0.59135739  0.82309663  1
  H  H746  1  0.30445529  0.61864005  0.83848856  1
  C  C747  1  0.44088090  0.56603135  0.78115736  1
  H  H748  1  0.43904595  0.56286173  0.87303962  1
  O  O749  1  0.45678757  0.64378378  0.87905000  1
  O  O750  1  0.46719953  0.56230489  0.84991343  1
  H  H751  1  0.41844854  0.59599970  0.78308642  1
  C  C752  1  0.48158521  0.61217295  0.87955971  1
  H  H753  1  0.43866301  0.72370828  0.80743523  1
  H  H754  1  0.47165549  0.57942864  0.75780083  1
  O  O755  1  0.29725564  0.58529852  0.82928071  1
  H  H756  1  0.28945721  0.50763030  0.79353497  1
  H  H757  1  0.41536194  0.74502350  0.97960440  1
  H  H758  1  0.02274477  0.93116194  0.90488601  1
  H  H759  1  0.08645728  0.78446840  0.90114544  1
  H  H760  1  0.09575837  0.95324518  0.85441342  1
  N  N761  1  0.08482736  0.92422999  0.82884802  1
  C  C762  1  0.08296852  0.88241091  0.86420437  1
  N  N763  1  0.18907629  0.87601912  0.85979090  1
  C  C764  1  0.09083586  0.88733172  0.92788999  1
  C  C765  1  0.10143584  0.93203567  0.95804292  1
  C  C766  1  0.21180575  0.87216406  0.91085941  1
  H  H767  1  0.15850204  0.88477923  0.85378923  1
  C  C768  1  0.07157966  0.83809642  0.82768589  1
  N  N769  1  0.17070989  0.95514917  0.79320120  1
  Zn  Zn770  1  0.20981451  0.90310279  0.77914419  1
  C  C771  1  0.09965298  0.84416208  0.96811578  1
  Zn  Zn772  1  0.03879574  0.96215860  0.79428860  1
  N  N773  1  0.09715107  0.97429157  0.95173428  1
  H  H774  1  0.05187849  0.84718290  0.78699009  1
  H  H775  1  0.10137151  0.82215727  0.80610708  1
  H  H776  1  0.05126472  0.81045661  0.85490014  1
  C  C777  1  0.09808776  0.79512840  0.94782944  1
  C  C778  1  0.18884379  0.86970394  0.97412036  1
  H  H779  1  0.19443668  0.78925160  0.77283653  1
  H  H780  1  0.02272015  0.98736545  0.99769494  1
  H  H781  1  0.16011053  0.89197485  0.97309586  1
  H  H782  1  0.18025124  0.83217824  0.98690473  1
  H  H783  1  0.06184163  0.77800424  0.76817126  1
  H  H784  1  0.24405345  0.98097531  0.85144718  1
  C  C785  1  0.10730061  0.75713957  0.98961665  1
  H  H786  1  0.45934617  0.95503982  0.99984754  1
  C  C787  1  0.45540665  0.99810987  0.88840078  1
  N  N788  1  0.33423829  0.99964624  0.89974851  1
  H  H789  1  0.32645292  0.82291147  0.90109137  1
  C  C790  1  0.27485264  0.85609115  0.97569823  1
  H  H791  1  0.45519957  0.84209702  0.89810492  1
  H  H792  1  0.29151015  0.99365220  0.80090679  1
  C  C793  1  0.41448885  0.79444279  0.77603508  1
  H  H794  1  0.34512474  0.88312195  0.90815030  1
  N  N795  1  0.27159396  0.88962187  0.80520706  1
  C  C796  1  0.42836411  0.91502096  0.92224107  1
  C  C797  1  0.43922247  0.75168477  0.77200862  1
  H  H798  1  0.40786955  0.83975288  0.95126731  1
  H  H799  1  0.37644402  0.91915865  0.98324262  1
  H  H800  1  0.26557398  0.78110941  0.95540013  1
  C  C801  1  0.32996595  0.85629372  0.87334304  1
  C  C802  1  0.27789065  0.80603096  0.98960514  1
  C  C803  1  0.43717256  0.86245294  0.93494464  1
  H  H804  1  0.44080036  0.86712384  0.81502296  1
  C  C805  1  0.45355054  0.94743755  0.88324658  1
  C  C806  1  0.25689534  0.86654569  0.91105409  1
  C  C807  1  0.28371840  0.87093494  0.85708300  1
  C  C808  1  0.47390639  0.88119316  0.81146513  1
  N  N809  1  0.39736530  0.93422054  0.95352698  1
  O  O810  1  0.35937981  0.84695308  0.82165187  1
  H  H811  1  0.28624120  0.89828212  0.76404735  1
  C  C812  1  0.48711212  0.92006454  0.84891504  1
  C  C813  1  0.38485135  0.80429008  0.82879132  1
  O  O814  1  0.38236090  0.77704969  0.87140212  1
  O  O815  1  0.37272961  0.96802909  0.79777111  1
  H  H816  1  0.34958805  0.97796864  0.86750591  1
  H  H817  1  0.48005998  0.82105732  0.99976636  1
  C  C818  1  0.46499296  0.85817465  0.99949831  1
  H  H819  1  0.44469165  0.94691291  0.75038353  1
  H  H820  1  0.49273440  0.81932498  0.75593037  1
  C  C821  1  0.57570437  0.09190187  0.19859884  1
  N  N822  1  0.52841279  0.05134543  0.12367861  1
  C  C823  1  0.56444325  0.05533779  0.15340005  1
  C  C824  1  0.59879858  0.02157895  0.12438802  1
  C  C825  1  0.54835108  0.13182003  0.21307117  1
  H  H826  1  0.50572011  0.12896732  0.02672714  1
  H  H827  1  0.68869359  0.01911872  0.17147917  1
  H  H828  1  0.50926877  0.21564695  0.06692348  1
  H  H829  1  0.58977300  0.00923603  0.07629363  1
  H  H830  1  0.62837898  0.04241866  0.11540345  1
  H  H831  1  0.71565080  0.02875409  0.09203973  1
  O  O832  1  0.66599236  0.24354849  0.17115606  1
  H  H833  1  0.65265649  0.13987794  0.19704502  1
  H  H834  1  0.65987709  0.05189950  0.01916764  1
  C  C835  1  0.65267840  0.10577707  0.22112722  1
  C  C836  1  0.69700498  0.00375410  0.12549105  1
  N  N837  1  0.51355090  0.13861866  0.18356601  1
  H  H838  1  0.73283754  0.08888749  0.01005576  1
  H  H839  1  0.74402628  0.14764667  0.07789507  1
  C  C840  1  0.61511739  0.07662577  0.23306945  1
  H  H841  1  0.74517601  0.23776988  0.07231543  1
  C  C842  1  0.69137970  0.08602973  0.23842817  1
  H  H843  1  0.71808029  0.10593631  0.22697088  1
  H  H844  1  0.66615199  0.21679431  0.01904230  1
  C  C845  1  0.96840469  0.00981197  0.04695682  1
  C  C846  1  0.98079547  0.00170747  0.11041316  1
  N  N847  1  0.80754747  0.00532799  0.12944595  1
  H  H848  1  0.96324054  0.19365712  0.02714096  1
  O  O849  1  0.96267148  0.12008985  0.06346982  1
  O  O850  1  0.93831354  0.11119242  0.16241408  1
  C  C851  1  0.94710465  0.13840648  0.12138644  1
  C  C852  1  0.94888085  0.21555698  0.18536003  1
  C  C853  1  0.77195679  0.16758226  0.09225636  1
  C  C854  1  0.80810855  0.14210039  0.11632361  1
  C  C855  1  0.84350559  0.17148511  0.12952201  1
  H  H856  1  0.87106785  0.15274535  0.15204297  1
  C  C857  1  0.81335235  0.05027115  0.10278081  1
  C  C858  1  0.80674645  0.09085148  0.14135767  1
  C  C859  1  0.84507441  0.22064504  0.12046849  1
  C  C860  1  0.80665441  0.09130858  0.20738163  1
  C  C861  1  0.77235245  0.21794525  0.08968818  1
  C  C862  1  0.81757611  0.05858271  0.03479111  1
  H  H863  1  0.87584464  0.23773485  0.13241306  1
  H  H864  1  0.94169814  0.19533082  0.22892367  1
  C  C865  1  0.95153668  0.19169409  0.12611644  1
  N  N866  1  0.92611261  0.01051177  0.03408267  1
  H  H867  1  0.95905704  0.08545609  0.07107748  1
  C  C868  1  0.95941779  0.21590615  0.07007138  1
  H  H869  1  0.78609866  0.05199543  0.01104082  1
  H  H870  1  0.90926502  0.00132318  0.07216409  1
  H  H871  1  0.84127948  0.03033269  0.01289047  1
  N  N872  1  0.81558438  0.05414223  0.24382310  1
  C  C873  1  0.80774669  0.24657106  0.10313370  1
  H  H874  1  0.77416338  0.15925312  0.22187140  1
  H  H875  1  0.82800332  0.09595914  0.02361248  1
  H  H876  1  0.89954739  0.20691494  0.00548730  1
  H  H877  1  0.82752994  0.16034296  0.24028866  1
  C  C878  1  0.79993894  0.13683021  0.24407185  1
  C  C879  1  0.66028877  0.25710177  0.01966211  1
  C  C880  1  0.66481865  0.25031776  0.22772974  1
  H  H881  1  0.67306798  0.26979319  0.06515462  1
  H  H882  1  0.74292039  0.27577927  0.00029166  1
  H  H883  1  0.51944387  0.43988496  0.20102362  1
  H  H884  1  0.69163723  0.47521339  0.14911332  1
  H  H885  1  0.56620625  0.47128651  0.15478762  1
  O  O886  1  0.65358457  0.45555092  0.05537265  1
  C  C887  1  0.68772102  0.44233695  0.02930925  1
  C  C888  1  0.72782392  0.44813055  0.07025758  1
  C  C889  1  0.72326750  0.46734093  0.12877705  1
  O  O890  1  0.61555551  0.47363473  0.24412548  1
  H  H891  1  0.72999187  0.27139871  0.16931743  1
  C  C892  1  0.73766233  0.28284669  0.21733043  1
  H  H893  1  0.62441436  0.26237260  0.02190076  1
  O  O894  1  0.85885802  0.31504047  0.11950976  1
  H  H895  1  0.87632889  0.36226732  0.04727701  1
  H  H896  1  0.90136325  0.29514954  0.24667914  1
  C  C897  1  0.92347812  0.37990730  0.11590404  1
  H  H898  1  0.85593540  0.39752097  0.12346133  1
  C  C899  1  0.80952625  0.29909527  0.10268701  1
  C  C900  1  0.98250365  0.35504202  0.18620339  1
  H  H901  1  0.84524666  0.27025921  0.24720836  1
  H  H902  1  0.96560459  0.28575215  0.02658048  1
  N  N903  1  0.89625983  0.45034067  0.24389841  1
  C  C904  1  0.80168568  0.46792831  0.13791703  1
  H  H905  1  0.79928109  0.32027028  0.21080497  1
  N  N906  1  0.97378168  0.39271967  0.22436845  1
  H  H907  1  0.84618607  0.37270485  0.23545420  1
  C  C908  1  0.82962058  0.40769630  0.23928473  1
  C  C909  1  0.80478195  0.44659117  0.07522262  1
  C  C910  1  0.95129468  0.34342521  0.14006735  1
  C  C911  1  0.84465531  0.47862538  0.16806710  1
  C  C912  1  0.85760621  0.44872046  0.21763850  1
  C  C913  1  0.76808203  0.43497309  0.04281373  1
  H  H914  1  0.94845539  0.28425399  0.22792644  1
  H  H915  1  0.83638792  0.44216398  0.05041894  1
  Zn  Zn916  1  0.95148444  0.46375406  0.19066016  1
  C  C917  1  0.76113399  0.47405685  0.16330371  1
  C  C918  1  0.87838323  0.36992860  0.10069160  1
  H  H919  1  0.75422256  0.49353762  0.20715261  1
  C  C920  1  0.95101377  0.26512796  0.18340854  1
  H  H921  1  0.79953965  0.40591730  0.21016148  1
  C  C922  1  0.95568168  0.29006994  0.12529985  1
  H  H923  1  0.91314960  0.45202446  0.09747723  1
  H  H924  1  0.85004908  0.32305403  0.16148376  1
  N  N925  1  0.93409505  0.42637112  0.11341397  1
  O  O926  1  0.78069790  0.32435163  0.09132269  1
  C  C927  1  0.96077378  0.26557478  0.06839895  1
  C  C928  1  0.77509930  0.30475221  0.24142914  1
  H  H929  1  0.89746345  0.31026679  0.01866543  1
  H  H930  1  0.64752933  0.07300183  0.35513920  1
  C  C931  1  0.64322163  0.09704550  0.39560805  1
  H  H932  1  0.62112577  0.07644055  0.42823987  1
  H  H933  1  0.62563703  0.13012403  0.37878412  1
  C  C934  1  0.68562709  0.11148844  0.42987767  1
  C  C935  1  0.69656200  0.14384344  0.47966692  1
  C  C936  1  0.65620337  0.20608155  0.42062665  1
  H  H937  1  0.67482486  0.19708005  0.38122344  1
  N  N938  1  0.71762999  0.08538685  0.40529344  1
  O  O939  1  0.73614745  0.02506614  0.27884930  1
  H  H940  1  0.71885543  0.06382908  0.36521578  1
  C  C941  1  0.69794871  0.03994827  0.26671059  1
  C  C942  1  0.53601360  0.17048420  0.46763228  1
  H  H943  1  0.53318629  0.17534921  0.41531950  1
  C  C944  1  0.65898890  0.01383904  0.27744861  1
  H  H945  1  0.54879368  0.20432289  0.48798864  1
  C  C946  1  0.66460773  0.18329607  0.47979867  1
  C  C947  1  0.56456517  0.16304696  0.26801484  1
  H  H948  1  0.57810305  0.14090656  0.30583114  1
  C  C949  1  0.62114908  0.23804621  0.41568301  1
  H  H950  1  0.54005796  0.18332230  0.29506785  1
  O  O951  1  0.63525212  0.23757059  0.26224132  1
  H  H952  1  0.59173313  0.18812297  0.25521679  1
  H  H953  1  0.51108609  0.06428294  0.26312555  1
  C  C954  1  0.61991199  0.02980302  0.26266898  1
  H  H955  1  0.58869309  0.01067967  0.27414141  1
  O  O956  1  0.51291949  0.06604642  0.36374591  1
  H  H957  1  0.70145368  0.01127338  0.44793270  1
  H  H958  1  0.56158733  0.14567818  0.47832982  1
  H  H959  1  0.56097881  0.02400619  0.49269567  1
  H  H960  1  0.52531124  0.07801423  0.49181518  1
  C  C961  1  0.71522878  0.00578431  0.49646868  1
  H  H962  1  0.50455817  0.01896218  0.48825576  1
  C  C963  1  0.96093076  0.00825026  0.47000973  1
  H  H964  1  0.75862603  0.17222476  0.40381539  1
  Zn  Zn965  1  0.85155493  0.01964316  0.45220470  1
  C  C966  1  0.96956554  0.14313815  0.30834925  1
  H  H967  1  0.92865878  0.08814427  0.40265328  1
  C  C968  1  0.91466674  0.21722392  0.33574221  1
  C  C969  1  0.86417434  0.09971402  0.35909368  1
  C  C970  1  0.82111395  0.17841625  0.37848198  1
  N  N971  1  0.78480573  0.15587162  0.38725439  1
  Zn  Zn972  1  0.77860936  0.08726356  0.42113769  1
  N  N973  1  0.83718504  0.07080168  0.38577028  1
  C  C974  1  0.85732848  0.15165589  0.35548242  1
  C  C975  1  0.89729257  0.17064471  0.33079573  1
  C  C976  1  0.91215345  0.08618204  0.35686667  1
  H  H977  1  0.91513975  0.04859522  0.33423632  1
  C  C978  1  0.92536412  0.12900443  0.31324427  1
  C  C979  1  0.95794569  0.22784571  0.32099954  1
  O  O980  1  0.93571626  0.15436857  0.47707236  1
  H  H981  1  0.81748116  0.04719017  0.28952648  1
  N  N982  1  0.79092386  0.03035179  0.47477104  1
  C  C983  1  0.82374501  0.23441502  0.38513425  1
  C  C984  1  0.98371314  0.18872769  0.31067953  1
  H  H985  1  0.91286236  0.11973754  0.26530344  1
  H  H986  1  0.97890844  0.03516171  0.29396928  1
  H  H987  1  0.79460936  0.13016464  0.29418210  1
  H  H988  1  0.89311098  0.24743478  0.35330574  1
  H  H989  1  0.83093114  0.24898566  0.33674460  1
  H  H990  1  0.99389029  0.11406669  0.30389592  1
  H  H991  1  0.84820005  0.24848855  0.41743985  1
  H  H992  1  0.61061799  0.25141393  0.36905654  1
  H  H993  1  0.59629703  0.49541382  0.44821157  1
  C  C994  1  0.60220239  0.25095497  0.47323173  1
  N  N995  1  0.50398439  0.43251065  0.32283101  1
  H  H996  1  0.74266908  0.49635485  0.34926298  1
  C  C997  1  0.70743931  0.26846528  0.26019434  1
  H  H998  1  0.67540959  0.26385706  0.35263972  1
  C  C999  1  0.70515340  0.27311496  0.32475497  1
  H  H1000  1  0.62793586  0.45602800  0.35879464  1
  O  O1001  1  0.54404809  0.28995635  0.41823730  1
  H  H1002  1  0.68342388  0.35253990  0.36605986  1
  Zn  Zn1003  1  0.52602134  0.38404622  0.37541856  1
  H  H1004  1  0.67228365  0.39262653  0.30880397  1
  H  H1005  1  0.57258163  0.35146942  0.30307690  1
  C  C1006  1  0.65819917  0.36076956  0.33251962  1
  H  H1007  1  0.52836341  0.45726770  0.32855059  1
  C  C1008  1  0.61934058  0.37502086  0.37033409  1
  N  N1009  1  0.58225748  0.36682539  0.34238440  1
  H  H1010  1  0.65095919  0.32849743  0.30153753  1
  C  C1011  1  0.56100173  0.28130469  0.46988394  1
  C  C1012  1  0.62328049  0.38923121  0.43402644  1
  C  C1013  1  0.60503768  0.48555820  0.35135831  1
  H  H1014  1  0.52406601  0.42085221  0.47512627  1
  N  N1015  1  0.55016142  0.41511973  0.45048178  1
  C  C1016  1  0.58920287  0.40530595  0.47419112  1
  H  H1017  1  0.67057322  0.30319040  0.46072229  1
  C  C1018  1  0.66599549  0.38318592  0.46747052  1
  C  C1019  1  0.74125282  0.29740373  0.35013801  1
  H  H1020  1  0.74376338  0.30370041  0.39924143  1
  H  H1021  1  0.66814212  0.46454005  0.47645965  1
  C  C1022  1  0.68390885  0.42757484  0.48487792  1
  C  C1023  1  0.59732213  0.49524515  0.28506020  1
  C  C1024  1  0.68577187  0.33729083  0.47673301  1
  H  H1025  1  0.79361950  0.25150577  0.40227144  1
  H  H1026  1  0.96910668  0.26591818  0.32332701  1
  N  N1027  1  0.94642218  0.29593723  0.47168089  1
  H  H1028  1  0.75070825  0.39529476  0.36277176  1
  H  H1029  1  0.81985387  0.45013135  0.47892587  1
  C  C1030  1  0.86832215  0.29628353  0.26659955  1
  H  H1031  1  0.99855071  0.40791858  0.25077604  1
  C  C1032  1  0.77620630  0.39074307  0.39788533  1
  H  H1033  1  0.95788864  0.32606578  0.36329143  1
  N  N1034  1  0.84330270  0.35025822  0.44472263  1
  N  N1035  1  0.96539049  0.36149519  0.37946983  1
  Zn  Zn1036  1  0.91443990  0.35289006  0.43388182  1
  C  C1037  1  0.85605427  0.32595728  0.31445167  1
  H  H1038  1  0.77467754  0.41762098  0.43784027  1
  N  N1039  1  0.89425158  0.48704955  0.39613628  1
  N  N1040  1  0.92019164  0.40525477  0.49591368  1
  C  C1041  1  0.98759839  0.29311357  0.47372778  1
  C  C1042  1  0.85781433  0.49784931  0.41883504  1
  H  H1043  1  0.81962475  0.41394827  0.28746668  1
  C  C1044  1  0.81305429  0.32652075  0.34157949  1
  C  C1045  1  0.84691855  0.47460577  0.48392487  1
  H  H1046  1  0.84153251  0.37564365  0.48206377  1
  Zn  Zn1047  1  0.94214304  0.45380505  0.43318400  1
  H  H1048  1  0.92363286  0.27847014  0.49518350  1
  C  C1049  1  0.80735122  0.35527792  0.39691003  1
  N  N1050  1  0.96400704  0.45406336  0.34077803  1
  N  N1051  1  0.88624766  0.35887828  0.34081721  1
  H  H1052  1  0.87282223  0.39106222  0.35727638  1
  Zn  Zn1053  1  0.93299503  0.39965011  0.29726478  1
  C  C1054  1  0.77618803  0.30649536  0.30793255  1
  H  H1055  1  0.84407146  0.32065219  0.47122919  1
  N  N1056  1  0.57846465  0.14914885  0.66960375  1
  H  H1057  1  0.57315036  0.11395594  0.66091242  1
  C  C1058  1  0.61223017  0.16975302  0.69400232  1
  C  C1059  1  0.62725491  0.07169065  0.57857269  1
  C  C1060  1  0.69079280  0.06649692  0.64244439  1
  C  C1061  1  0.66735671  0.09010516  0.59313419  1
  H  H1062  1  0.67411110  0.12387107  0.57104319  1
  H  H1063  1  0.60924703  0.09119870  0.54287505  1
  H  H1064  1  0.65103021  0.18410499  0.58402894  1
  Zn  Zn1065  1  0.52993210  0.17623501  0.62726440  1
  C  C1066  1  0.56415274  0.02486758  0.62102747  1
  C  C1067  1  0.53027493  0.03971439  0.58030320  1
  C  C1068  1  0.61170028  0.03153609  0.61490125  1
  C  C1069  1  0.64987529  0.13783121  0.71506246  1
  C  C1070  1  0.64594098  0.19935681  0.53753063  1
  C  C1071  1  0.61689345  0.21990817  0.69161319  1
  C  C1072  1  0.72994732  0.08637961  0.67046809  1
  H  H1073  1  0.64370880  0.09971794  0.70130129  1
  H  H1074  1  0.68048410  0.15059264  0.68982984  1
  C  C1075  1  0.54844598  0.01984583  0.68396048  1
  C  C1076  1  0.67932163  0.02246473  0.67242724  1
  C  C1077  1  0.61155900  0.23166194  0.53319270  1
  H  H1078  1  0.51207733  0.21707296  0.73425617  1
  C  C1079  1  0.53085854  0.04092989  0.50830050  1
  C  C1080  1  0.64024264  0.00335846  0.65309874  1
  H  H1081  1  0.69760410  0.00647185  0.71021596  1
  N  N1082  1  0.55050575  0.23671724  0.64554689  1
  N  N1083  1  0.50718372  0.02803672  0.68232438  1
  C  C1084  1  0.73308488  0.14552778  0.52131526  1
  C  C1085  1  0.66140847  0.23770077  0.70341435  1
  H  H1086  1  0.59082583  0.24129212  0.57671909  1
  H  H1087  1  0.70937430  0.04151937  0.52319378  1
  H  H1088  1  0.74864653  0.22529727  0.53805511  1
  C  C1089  1  0.69466200  0.21887990  0.74123180  1
  C  C1090  1  0.73929741  0.19160213  0.56408866  1
  O  O1091  1  0.74657950  0.12408522  0.66194793  1
  H  H1092  1  0.70804644  0.20048346  0.58525575  1
  C  C1093  1  0.73391083  0.23899122  0.74685026  1
  C  C1094  1  0.56429747  0.00602371  0.74762241  1
  H  H1095  1  0.76499070  0.18781819  0.60407606  1
  H  H1096  1  0.98097765  0.23716655  0.54537521  1
  O  O1097  1  0.75321246  0.04887195  0.71046032  1
  H  H1098  1  0.98355793  0.01118198  0.59241757  1
  H  H1099  1  0.79945981  0.00388698  0.60974685  1
  H  H1100  1  0.97580756  0.07657093  0.59102689  1
  H  H1101  1  0.93614698  0.04102598  0.62051708  1
  C  C1102  1  0.95948356  0.03940959  0.58216720  1
  N  N1103  1  0.81747173  0.03150847  0.62440274  1
  C  C1104  1  0.88702194  0.16037330  0.66678936  1
  H  H1105  1  0.86463697  0.17952059  0.69911439  1
  N  N1106  1  0.85441600  0.11466103  0.58329934  1
  H  H1107  1  0.84711404  0.14505413  0.56075882  1
  C  C1108  1  0.87045177  0.11376553  0.64001478  1
  C  C1109  1  0.87679858  0.06780554  0.66925334  1
  C  C1110  1  0.85199285  0.02418180  0.65799045  1
  Zn  Zn1111  1  0.80757205  0.07609006  0.55225822  1
  H  H1112  1  0.89309541  0.18581187  0.62480291  1
  O  O1113  1  0.94900725  0.14706010  0.57776365  1
  H  H1114  1  0.87888653  0.05838492  0.54789568  1
  H  H1115  1  0.91903903  0.15262092  0.68708919  1
  H  H1116  1  0.91988658  0.13108769  0.56900016  1
  C  C1117  1  0.90325601  0.06630176  0.72635433  1
  C  C1118  1  0.93907998  0.03331050  0.51747460  1
  H  H1119  1  0.97697798  0.20421530  0.73618083  1
  C  C1120  1  0.92731957  0.02388575  0.74137523  1
  H  H1121  1  0.78144008  0.06169938  0.70211377  1
  C  C1122  1  0.96326249  0.15246665  0.51512485  1
  N  N1123  1  0.89971219  0.04486255  0.51326902  1
  N  N1124  1  0.76589166  0.11696288  0.50529955  1
  C  C1125  1  0.83911366  0.24333502  0.55151331  1
  O  O1126  1  0.87202880  0.24966427  0.56064577  1
  C  C1127  1  0.50717672  0.46182235  0.62814525  1
  H  H1128  1  0.63009996  0.48906587  0.62901778  1
  C  C1129  1  0.58242139  0.25240241  0.67733090  1
  H  H1130  1  0.62499362  0.40227382  0.56211930  1
  H  H1131  1  0.68160435  0.44865947  0.61647339  1
  H  H1132  1  0.63026329  0.43408500  0.65253361  1
  H  H1133  1  0.52337725  0.25446620  0.63203173  1
  H  H1134  1  0.67669231  0.39257592  0.64509212  1
  C  C1135  1  0.66558630  0.42987969  0.65729870  1
  O  O1136  1  0.54494943  0.33385317  0.67222455  1
  C  C1137  1  0.57657304  0.30627592  0.69879999  1
  C  C1138  1  0.54539361  0.38985891  0.67197883  1
  H  H1139  1  0.60688259  0.33019462  0.69723023  1
  O  O1140  1  0.56734031  0.41232110  0.70472103  1
  C  C1141  1  0.59061414  0.40650391  0.54658747  1
  C  C1142  1  0.72313597  0.42546206  0.51547884  1
  H  H1143  1  0.56936254  0.37915360  0.56576509  1
  H  H1144  1  0.57843584  0.44152015  0.56098878  1
  C  C1145  1  0.74174529  0.28132887  0.71370713  1
  C  C1146  1  0.67046016  0.27918328  0.66769949  1
  C  C1147  1  0.71052508  0.30056531  0.67248624  1
  H  H1148  1  0.65035318  0.29266195  0.63052075  1
  H  H1149  1  0.71429206  0.33374497  0.64491181  1
  C  C1150  1  0.51249417  0.41064808  0.62994858  1
  H  H1151  1  0.52517024  0.47950647  0.66647233  1
  C  C1152  1  0.74527911  0.38083234  0.52559269  1
  C  C1153  1  0.68499799  0.44850809  0.71919578  1
  H  H1154  1  0.56942939  0.30489054  0.74980971  1
  H  H1155  1  0.73187029  0.39370000  0.71962403  1
  H  H1156  1  0.73631554  0.46005187  0.53390143  1
  H  H1157  1  0.74299560  0.30262809  0.51384691  1
  O  O1158  1  0.54158811  0.28680350  0.51977166  1
  C  C1159  1  0.72619992  0.33840365  0.50650965  1
  N  N1160  1  0.71849173  0.42448524  0.73746068  1
  H  H1161  1  0.52240703  0.49517423  0.74068870  1
  H  H1162  1  0.84597502  0.47692796  0.60858485  1
  C  C1163  1  0.86441085  0.48089230  0.65160884  1
  C  C1164  1  0.90658249  0.46353201  0.65206575  1
  H  H1165  1  0.91817207  0.36084169  0.64078775  1
  H  H1166  1  0.90616806  0.32751352  0.57311832  1
  C  C1167  1  0.92326610  0.45265084  0.58730845  1
  C  C1168  1  0.91516275  0.40617545  0.55641419  1
  H  H1169  1  0.80797583  0.41299424  0.62804153  1
  O  O1170  1  0.98968963  0.28362456  0.69654055  1
  H  H1171  1  0.86685480  0.36485835  0.61146776  1
  H  H1172  1  0.95127870  0.39967897  0.72506348  1
  C  C1173  1  0.78494363  0.37686857  0.56229643  1
  H  H1174  1  0.87867893  0.31226647  0.71630297  1
  O  O1175  1  0.80178302  0.42467934  0.58757773  1
  C  C1176  1  0.90087251  0.36216952  0.59521919  1
  C  C1177  1  0.93406978  0.47303907  0.70621794  1
  C  C1178  1  0.78514567  0.30643274  0.72125949  1
  C  C1179  1  0.94427735  0.49168795  0.56138807  1
  O  O1180  1  0.78867379  0.34839646  0.71305980  1
  O  O1181  1  0.80602822  0.34164265  0.57201768  1
  H  H1182  1  0.96860589  0.46769840  0.70192837  1
  O  O1183  1  0.81587864  0.27778042  0.74220587  1
  N  N1184  1  0.96050633  0.48994171  0.50416737  1
  H  H1185  1  0.87441482  0.45446343  0.50256158  1
  H  H1186  1  0.61151074  0.17700942  0.90976230  1
  H  H1187  1  0.68549748  0.21127129  0.90495256  1
  C  C1188  1  0.63907052  0.15747670  0.93103651  1
  C  C1189  1  0.68017370  0.17461384  0.92804699  1
  O  O1190  1  0.61961502  0.06547823  0.80423273  1
  C  C1191  1  0.69343603  0.05154549  0.85595062  1
  H  H1192  1  0.67363209  0.08410239  0.86457643  1
  C  C1193  1  0.73301606  0.04469696  0.88455551  1
  C  C1194  1  0.54710755  0.10183747  0.95153713  1
  C  C1195  1  0.71528981  0.14732112  0.95048433  1
  C  C1196  1  0.63161908  0.11065455  0.95882174  1
  C  C1197  1  0.59080505  0.08343369  0.95828125  1
  C  C1198  1  0.53636853  0.15317650  0.92834737  1
  N  N1199  1  0.51940477  0.06957847  0.96591173  1
  H  H1200  1  0.57518814  0.21209991  0.77683873  1
  C  C1201  1  0.63226889  0.02570025  0.80039845  1
  C  C1202  1  0.67560984  0.01463228  0.82011079  1
  H  H1203  1  0.51050794  0.04670898  0.86652875  1
  H  H1204  1  0.55392633  0.16056277  0.88459889  1
  C  C1205  1  0.57557835  0.22927664  0.82203714  1
  H  H1206  1  0.54512438  0.18225021  0.96197601  1
  C  C1207  1  0.59300967  0.03274815  0.97172296  1
  C  C1208  1  0.53531568  0.23393301  0.85056366  1
  H  H1209  1  0.68700695  0.18822202  0.76880265  1
  H  H1210  1  0.65542367  0.01502528  0.94411957  1
  H  H1211  1  0.65490191  0.14063540  0.76629331  1
  H  H1212  1  0.53170915  0.16524429  0.77281038  1
  H  H1213  1  0.74646470  0.07154434  0.91392697  1
  C  C1214  1  0.62564048  0.00175427  0.96309841  1
  H  H1215  1  0.55533338  0.03532884  0.77793126  1
  C  C1216  1  0.50270766  0.18970632  0.76662117  1
  C  C1217  1  0.70562082  0.10519243  0.98798245  1
  C  C1218  1  0.66556209  0.08733386  0.99203648  1
  N  N1219  1  0.54797466  0.01640753  0.98470581  1
  H  H1220  1  0.64166466  0.24998971  0.81220330  1
  O  O1221  1  0.50005401  0.21388087  0.82792718  1
  H  H1222  1  0.50184050  0.15997245  0.91863791  1
  H  H1223  1  0.75499936  0.22500468  0.78103974  1
  O  O1224  1  0.98296539  0.01497385  0.92922666  1
  C  C1225  1  0.76073337  0.15881377  0.94188801  1
  O  O1226  1  0.77272047  0.20742923  0.91928388  1
  N  N1227  1  0.86983696  0.00914207  0.90986214  1
  C  C1228  1  0.83310235  0.01259397  0.88141038  1
  H  H1229  1  0.89660154  0.02622932  0.89647169  1
  H  H1230  1  0.80426042  0.07319251  0.82980367  1
  C  C1231  1  0.83143239  0.04674643  0.82538830  1
  H  H1232  1  0.82563972  0.02727142  0.78147666  1
  H  H1233  1  0.86152618  0.07043739  0.81972059  1
  C  C1234  1  0.93206123  0.10209392  0.82414667  1
  H  H1235  1  0.93496167  0.13324359  0.85620848  1
  C  C1236  1  0.94650865  0.05641915  0.84151381  1
  C  C1237  1  0.96701616  0.05640395  0.90449335  1
  O  O1238  1  0.96893891  0.09423321  0.93074715  1
  C  C1239  1  0.94713465  0.01821864  0.79948577  1
  N  N1240  1  0.85740312  0.16271017  0.87926788  1
  C  C1241  1  0.88787623  0.18291162  0.90809216  1
  O  O1242  1  0.78842472  0.13061877  0.95355701  1
  H  H1243  1  0.84009343  0.13924593  0.90541602  1
  H  H1244  1  0.96995982  0.16611294  0.94369697  1
  C  C1245  1  0.91576248  0.21708546  0.87148242  1
  C  C1246  1  0.98463970  0.20125081  0.92757558  1
  C  C1247  1  0.95986603  0.23128281  0.88749763  1
  H  H1248  1  0.79959470  0.19687839  0.89969738  1
  C  C1249  1  0.89094819  0.17374861  0.98032136  1
  C  C1250  1  0.90850694  0.10641447  0.76934149  1
  C  C1251  1  0.90133922  0.24703890  0.82299349  1
  H  H1252  1  0.91566852  0.14563776  0.99282275  1
  H  H1253  1  0.89118217  0.14090642  0.76195098  1
  C  C1254  1  0.99954243  0.01764936  0.99503087  1
  H  H1255  1  0.85829799  0.16128820  0.99599147  1
  H  H1256  1  0.99268273  0.11604188  0.75326275  1
  C  C1257  1  0.61305056  0.25137769  0.84078729  1
  H  H1258  1  0.50530545  0.27584013  0.92378582  1
  C  C1259  1  0.53652198  0.26695659  0.90213376  1
  C  C1260  1  0.66543805  0.48670557  0.75027216  1
  C  C1261  1  0.52067098  0.47431008  0.78194372  1
  C  C1262  1  0.53819685  0.44438345  0.87991088  1
  H  H1263  1  0.58672018  0.47607103  0.81745747  1
  N  N1264  1  0.71032326  0.47456893  0.84360954  1
  C  C1265  1  0.55201200  0.46329951  0.82258689  1
  C  C1266  1  0.57394973  0.28680885  0.92286459  1
  C  C1267  1  0.61466777  0.28167994  0.89527158  1
  C  C1268  1  0.67877774  0.28559764  0.96238830  1
  C  C1269  1  0.65743068  0.30609590  0.90902698  1
  C  C1270  1  0.67689154  0.34052698  0.86659478  1
  C  C1271  1  0.64597476  0.36116735  0.81638364  1
  N  N1272  1  0.71579227  0.35562941  0.86802193  1
  Zn  Zn1273  1  0.73906732  0.41482253  0.82362575  1
  H  H1274  1  0.65922483  0.39750070  0.79513567  1
  H  H1275  1  0.64050847  0.33648391  0.77577088  1
  C  C1276  1  0.57056300  0.43781024  0.93045721  1
  O  O1277  1  0.61393707  0.44681678  0.91071950  1
  H  H1278  1  0.61390047  0.36418549  0.83620720  1
  H  H1279  1  0.57550964  0.31512916  0.95647368  1
  H  H1280  1  0.63023208  0.43724372  0.94953075  1
  N  N1281  1  0.72093824  0.28578726  0.96644083  1
  O  O1282  1  0.56209124  0.42942686  0.98289182  1
  O  O1283  1  0.69218727  0.42663026  0.97678450  1
  C  C1284  1  0.86012509  0.30008680  0.75763117  1
  H  H1285  1  0.93971707  0.39065580  0.95933634  1
  C  C1286  1  0.98045627  0.40066526  0.87864727  1
  H  H1287  1  0.95922392  0.29512768  0.82951064  1
  C  C1288  1  0.82525801  0.39786933  0.87577153  1
  Zn  Zn1289  1  0.76320821  0.33047783  0.92506498  1
  H  H1290  1  0.77038465  0.41807894  0.99591163  1
  N  N1291  1  0.88853332  0.26837668  0.78111749  1
  C  C1292  1  0.94183639  0.39221487  0.90926005  1
  C  C1293  1  0.85810228  0.33132264  0.93906893  1
  H  H1294  1  0.88998135  0.26341779  0.96143254  1
  H  H1295  1  0.92908498  0.31171981  0.94491786  1
  H  H1296  1  0.85310193  0.46873322  0.86562037  1
  H  H1297  1  0.79743155  0.46270466  0.82960030  1
  C  C1298  1  0.89679640  0.30313475  0.96723306  1
  H  H1299  1  0.81049539  0.28390038  0.98094670  1
  C  C1300  1  0.97905958  0.27493365  0.86420229  1
  H  H1301  1  0.85452813  0.33054339  0.79339662  1
  C  C1302  1  0.98299712  0.40098083  0.81304033  1
  C  C1303  1  0.82986898  0.44407428  0.83848425  1
  N  N1304  1  0.82081037  0.31226243  0.95294973  1
  H  H1305  1  0.84066019  0.43948858  0.78993881  1
  C  C1306  1  0.90500295  0.38383804  0.86959794  1
  C  C1307  1  0.90724571  0.38614419  0.80254844  1
  H  H1308  1  0.87863680  0.38058937  0.77416000  1
  C  C1309  1  0.86237434  0.36942771  0.89685140  1
  N  N1310  1  0.78763724  0.38178793  0.87308529  1
  C  C1311  1  0.94795313  0.39420344  0.77438554  1
  N  N1312  1  0.53323138  0.56865701  0.04881708  1
  H  H1313  1  0.68238118  0.64504445  0.15869810  1
  C  C1314  1  0.53870351  0.65131854  0.18984593  1
  H  H1315  1  0.54759224  0.57992414  0.00905331  1
  C  C1316  1  0.66805761  0.63440049  0.20315896  1
  H  H1317  1  0.71891747  0.70800491  0.21408411  1
  H  H1318  1  0.56294352  0.62313193  0.18018205  1
  H  H1319  1  0.60804728  0.66356795  0.18086558  1
  H  H1320  1  0.54960461  0.68779961  0.17182594  1
  H  H1321  1  0.55261852  0.53803214  0.22494481  1
  H  H1322  1  0.53087235  0.72335472  0.04789832  1
  O  O1323  1  0.58912408  0.73416680  0.15038689  1
  Zn  Zn1324  1  0.57963938  0.52580564  0.07241349  1
  N  N1325  1  0.63809846  0.51752549  0.04027471  1
  C  C1326  1  0.73826517  0.59847250  0.23343989  1
  C  C1327  1  0.62735671  0.64564828  0.21783145  1
  H  H1328  1  0.72152065  0.72461460  0.09065214  1
  H  H1329  1  0.62700513  0.74424768  0.03020998  1
  H  H1330  1  0.73010706  0.56603859  0.01379933  1
  N  N1331  1  0.70093503  0.71865500  0.05119829  1
  H  H1332  1  0.50851056  0.64148274  0.16520291  1
  N  N1333  1  0.54645551  0.50124360  0.14257974  1
  C  C1334  1  0.50579455  0.50370597  0.15179173  1
  H  H1335  1  0.50167509  0.58837736  0.23096746  1
  C  C1336  1  0.69386268  0.61067046  0.24839568  1
  C  C1337  1  0.66134517  0.63959506  0.02310827  1
  C  C1338  1  0.67958916  0.67609348  0.04071922  1
  C  C1339  1  0.66117002  0.54772094  0.00696311  1
  H  H1340  1  0.71403621  0.73151115  0.01100712  1
  O  O1341  1  0.75628345  0.60539549  0.18660950  1
  O  O1342  1  0.76359971  0.74103021  0.13224763  1
  C  C1343  1  0.86976647  0.51428151  0.13851972  1
  H  H1344  1  0.82828312  0.52460670  0.05334388  1
  H  H1345  1  0.87720325  0.56063407  0.05226392  1
  H  H1346  1  0.83491695  0.57832070  0.10642324  1
  N  N1347  1  0.90960033  0.51733919  0.15855928  1
  C  C1348  1  0.85166139  0.54591828  0.08482036  1
  O  O1349  1  0.85828705  0.64665467  0.07947835  1
  C  C1350  1  0.89580386  0.63544683  0.11735054  1
  H  H1351  1  0.83953590  0.65546672  0.11407298  1
  C  C1352  1  0.89136862  0.64840400  0.18673690  1
  H  H1353  1  0.82185427  0.65613293  0.19571312  1
  O  O1354  1  0.92533615  0.61753667  0.09217690  1
  H  H1355  1  0.96098983  0.64244793  0.18487603  1
  C  C1356  1  0.85262309  0.65665914  0.21807095  1
  H  H1357  1  0.93092163  0.53871399  0.13603445  1
  C  C1358  1  0.93309055  0.65063988  0.21415524  1
  C  C1359  1  0.78142086  0.73855068  0.23906919  1
  H  H1360  1  0.81362959  0.58049180  0.23892645  1
  C  C1361  1  0.79095006  0.74671012  0.17292538  1
  C  C1362  1  0.98955973  0.73534613  0.09753070  1
  H  H1363  1  0.96754393  0.72206107  0.19411887  1
  C  C1364  1  0.96408531  0.74477799  0.15188052  1
  O  O1365  1  0.58029610  0.76243581  0.24468610  1
  C  C1366  1  0.59908436  0.76235118  0.19532678  1
  H  H1367  1  0.50335081  0.88812774  0.16788432  1
  H  H1368  1  0.65278048  0.94228771  0.12040721  1
  H  H1369  1  0.54348445  0.96398955  0.15245696  1
  H  H1370  1  0.57564150  0.80081424  0.09459104  1
  H  H1371  1  0.58731175  0.84840736  0.14079981  1
  C  C1372  1  0.55471978  0.90481322  0.09487671  1
  C  C1373  1  0.59358495  0.88750616  0.13243802  1
  C  C1374  1  0.71436557  0.95324334  0.12732637  1
  C  C1375  1  0.69197604  0.87438183  0.16583040  1
  C  C1376  1  0.68307400  0.84305302  0.11476413  1
  H  H1377  1  0.62296398  0.88860296  0.10852836  1
  C  C1378  1  0.65278280  0.80478949  0.12223393  1
  H  H1379  1  0.64515012  0.77806727  0.08777510  1
  C  C1380  1  0.53866145  0.88108327  0.04158858  1
  N  N1381  1  0.53600372  0.94319474  0.11652640  1
  H  H1382  1  0.59467689  0.90441562  0.17923066  1
  C  C1383  1  0.63419755  0.80191912  0.18076557  1
  C  C1384  1  0.72865314  0.91025531  0.15723109  1
  C  C1385  1  0.58335525  0.80468080  0.04500572  1
  H  H1386  1  0.70142325  0.85098368  0.07047167  1
  C  C1387  1  0.56660444  0.84477245  0.01093313  1
  C  C1388  1  0.67507879  0.86725724  0.22807379  1
  N  N1389  1  0.67531579  0.96052923  0.09650964  1
  C  C1390  1  0.64547175  0.83011333  0.23308647  1
  C  C1391  1  0.60896636  0.77366270  0.01048570  1
  H  H1392  1  0.73342488  0.98878979  0.01906283  1
  H  H1393  1  0.60766972  0.99285825  0.15596492  1
  Zn  Zn1394  1  0.51258384  0.99845730  0.06396469  1
  H  H1395  1  0.86152368  0.75027237  0.08099950  1
  H  H1396  1  0.80857140  0.77526379  0.06861865  1
  H  H1397  1  0.98547396  0.86889661  0.09528291  1
  C  C1398  1  0.99082078  0.76085783  0.04069291  1
  C  C1399  1  0.85660530  0.83002694  0.07840554  1
  H  H1400  1  0.90724588  0.78856962  0.18293417  1
  Zn  Zn1401  1  0.83238069  0.98942838  0.21566703  1
  H  H1402  1  0.83176097  0.89858717  0.19183352  1
  H  H1403  1  0.76028823  0.93596755  0.05244526  1
  C  C1404  1  0.93140451  0.80409822  0.08993891  1
  C  C1405  1  0.76669788  0.89704298  0.18933694  1
  C  C1406  1  0.91997243  0.89045009  0.07112759  1
  N  N1407  1  0.89317854  0.92788825  0.05937205  1
  H  H1408  1  0.79582512  0.85844826  0.07587588  1
  C  C1409  1  0.83866563  0.78023109  0.09643548  1
  C  C1410  1  0.95674473  0.79307101  0.03533044  1
  N  N1411  1  0.88999446  0.98022780  0.23409193  1
  C  C1412  1  0.92370531  0.98804991  0.19948252  1
  H  H1413  1  0.96822745  0.92312704  0.13311553  1
  N  N1414  1  0.82689878  0.86367373  0.07697678  1
  H  H1415  1  0.76060186  0.81714544  0.19744002  1
  C  C1416  1  0.77698608  0.84940670  0.22035659  1
  C  C1417  1  0.95107405  0.99463841  0.16047446  1
  Zn  Zn1418  1  0.82999096  0.93569407  0.08878790  1
  N  N1419  1  0.80492754  0.91863072  0.17922571  1
  O  O1420  1  0.83072763  0.76364693  0.15966403  1
  H  H1421  1  0.77821660  0.99292904  0.14173626  1
  C  C1422  1  0.96694822  0.90262678  0.08654786  1
  H  H1423  1  0.98235331  0.92371855  0.04743720  1
  C  C1424  1  0.89907222  0.84466249  0.07746807  1
  C  C1425  1  0.93140577  0.77876845  0.14505383  1
  H  H1426  1  0.81003887  0.83952732  0.21074878  1
  C  C1427  1  0.75405716  0.95779190  0.00653531  1
  N  N1428  1  0.82825461  0.95632401  0.00215703  1
  C  C1429  1  0.61023910  0.63522846  0.27950289  1
  C  C1430  1  0.57054790  0.65680669  0.30330518  1
  C  C1431  1  0.63534648  0.60985726  0.32470962  1
  C  C1432  1  0.67639849  0.59442339  0.30646694  1
  C  C1433  1  0.54522107  0.55410434  0.32183918  1
  H  H1434  1  0.69418748  0.57190034  0.33804549  1
  C  C1435  1  0.55508870  0.54580270  0.38744031  1
  H  H1436  1  0.62117547  0.59939591  0.37075494  1
  C  C1437  1  0.57195408  0.67621588  0.36683545  1
  C  C1438  1  0.70831108  0.52306625  0.42772485  1
  N  N1439  1  0.53796580  0.69812956  0.38885807  1
  C  C1440  1  0.61411427  0.67744101  0.40478971  1
  C  C1441  1  0.53135020  0.57854555  0.43016178  1
  C  C1442  1  0.72050876  0.63485470  0.42277010  1
  H  H1443  1  0.69768707  0.69247401  0.32801969  1
  C  C1444  1  0.72895435  0.70556979  0.31169922  1
  H  H1445  1  0.62447310  0.64158900  0.41638688  1
  H  H1446  1  0.61160265  0.69953046  0.45045900  1
  H  H1447  1  0.63842798  0.69522234  0.37569538  1
  H  H1448  1  0.71955293  0.60301444  0.45147920  1
  C  C1449  1  0.55694588  0.60130652  0.47705272  1
  H  H1450  1  0.68844214  0.64710366  0.40304538  1
  H  H1451  1  0.67797363  0.52272014  0.40390265  1
  H  H1452  1  0.74064346  0.62608889  0.38047776  1
  C  C1453  1  0.53533480  0.65806581  0.26092673  1
  H  H1454  1  0.52158111  0.58246613  0.31351792  1
  C  C1455  1  0.74503251  0.51161823  0.39514508  1
  Zn  Zn1456  1  0.51874541  0.70385975  0.47933590  1
  O  O1457  1  0.63291053  0.55508985  0.48645853  1
  C  C1458  1  0.71093299  0.54138557  0.49057315  1
  C  C1459  1  0.74323722  0.67617406  0.46032493  1
  C  C1460  1  0.56386112  0.53097606  0.27331117  1
  C  C1461  1  0.73991195  0.71624953  0.25255406  1
  C  C1462  1  0.58587298  0.50776225  0.40072914  1
  Zn  Zn1463  1  0.91454501  0.50107673  0.30940478  1
  C  C1464  1  0.75624857  0.71967564  0.42911972  1
  C  C1465  1  0.75926549  0.72123036  0.35934117  1
  O  O1466  1  0.76271889  0.57529935  0.29158496  1
  C  C1467  1  0.97212573  0.61097664  0.41380733  1
  C  C1468  1  0.82737893  0.52657889  0.38475105  1
  N  N1469  1  0.87271394  0.55062742  0.30025462  1
  H  H1470  1  0.95188121  0.58138763  0.32455128  1
  C  C1471  1  0.80204502  0.56942907  0.28484809  1
  H  H1472  1  0.82802238  0.59885533  0.39604037  1
  C  C1473  1  0.82884877  0.63201849  0.42426847  1
  C  C1474  1  0.86135784  0.66731722  0.42119932  1
  C  C1475  1  0.89742375  0.67319147  0.30939012  1
  C  C1476  1  0.89355539  0.68693423  0.37684368  1
  C  C1477  1  0.78618565  0.52680567  0.42152498  1
  C  C1478  1  0.83276648  0.54984896  0.32502067  1
  H  H1479  1  0.94121063  0.62679646  0.42455823  1
  C  C1480  1  0.97795684  0.58420012  0.36133908  1
  H  H1481  1  0.82792027  0.67694816  0.30806944  1
  H  H1482  1  0.80334804  0.63662156  0.45612695  1
  N  N1483  1  0.86205268  0.69196942  0.47193442  1
  H  H1484  1  0.96718254  0.66221118  0.30535181  1
  C  C1485  1  0.85630895  0.67059427  0.27888133  1
  C  C1486  1  0.91547932  0.72647705  0.40246660  1
  N  N1487  1  0.90043846  0.73614593  0.45689149  1
  C  C1488  1  0.93598882  0.65892000  0.27894925  1
  H  H1489  1  0.98337025  0.72584213  0.39540662  1
  C  C1490  1  0.78632832  0.54639223  0.48414577  1
  H  H1491  1  0.95412779  0.73829539  0.31884441  1
  H  H1492  1  0.97564817  0.51648545  0.47906122  1
  C  C1493  1  0.79860024  0.74268435  0.34427420  1
  C  C1494  1  0.95755037  0.74852248  0.37209178  1
  H  H1495  1  0.88168409  0.56441158  0.25803032  1
  C  C1496  1  0.62630112  0.98000660  0.40783938  1
  O  O1497  1  0.63279400  0.98924753  0.45472830  1
  H  H1498  1  0.57470246  0.77190948  0.38875546  1
  H  H1499  1  0.52055089  0.92012689  0.42952777  1
  C  C1500  1  0.68782316  0.81272349  0.36693227  1
  C  C1501  1  0.65579908  0.84103445  0.39588103  1
  H  H1502  1  0.67755207  0.77498797  0.35596757  1
  C  C1503  1  0.73022277  0.82533377  0.35440790  1
  C  C1504  1  0.71191163  0.90129079  0.40437221  1
  C  C1505  1  0.66886427  0.88669512  0.41735706  1
  C  C1506  1  0.61206662  0.82254486  0.40776803  1
  O  O1507  1  0.60475690  0.77538876  0.38518024  1
  H  H1508  1  0.72111492  0.93473161  0.42737562  1
  H  H1509  1  0.64699594  0.90793857  0.44685049  1
  C  C1510  1  0.74177173  0.87310636  0.36875806  1
  C  C1511  1  0.74184726  0.96984862  0.30364534  1
  H  H1512  1  0.71760912  0.97407888  0.34159369  1
  O  O1513  1  0.58406513  0.84319307  0.43514980  1
  H  H1514  1  0.65786675  0.97884842  0.30374199  1
  H  H1515  1  0.56504927  0.90774904  0.46825881  1
  N  N1516  1  0.53276963  0.91876668  0.47552458  1
  H  H1517  1  0.72790291  0.95259602  0.26178328  1
  H  H1518  1  0.68511053  0.88566194  0.27091786  1
  H  H1519  1  0.63351718  0.82348141  0.28086976  1
  N  N1520  1  0.85814342  0.86548486  0.33767161  1
  C  C1521  1  0.94171928  0.98980269  0.41518614  1
  H  H1522  1  0.88752918  0.98797287  0.28219910  1
  N  N1523  1  0.81796874  0.96715152  0.30623442  1
  N  N1524  1  0.90516985  0.99181462  0.38887383  1
  H  H1525  1  0.75038681  0.85851987  0.47675070  1
  H  H1526  1  0.75379117  0.79999673  0.33110729  1
  H  H1527  1  0.84611099  0.95143632  0.31597401  1
  C  C1528  1  0.81993988  0.87139692  0.35228106  1
  C  C1529  1  0.78217481  0.94553177  0.32238174  1
  C  C1530  1  0.80983816  0.75316182  0.28377998  1
  H  H1531  1  0.90002390  0.82442070  0.35698050  1
  O  O1532  1  0.97247083  0.79516843  0.37063788  1
  H  H1533  1  0.90994199  0.75302163  0.49794387  1
  C  C1534  1  0.78302766  0.89718405  0.34953441  1
  H  H1535  1  0.85534138  0.80357852  0.40952649  1
  H  H1536  1  0.90586158  0.91813131  0.39484874  1
  H  H1537  1  0.82085984  0.75062936  0.38358580  1
  H  H1538  1  0.94817229  0.93678542  0.33645051  1
  C  C1539  1  0.92437514  0.94707207  0.37227135  1
  H  H1540  1  0.78097007  0.81687010  0.41198986  1
  H  H1541  1  0.97690678  0.88515236  0.38897355  1
  C  C1542  1  0.86460146  0.82670748  0.36926117  1
  H  H1543  1  0.83961371  0.77425636  0.26844255  1
  C  C1544  1  0.79075332  0.80173669  0.45494703  1
  N  N1545  1  0.85026227  0.95271592  0.49382529  1
  H  H1546  1  0.81408560  0.82114742  0.48430505  1
  C  C1547  1  0.77617420  0.75639588  0.46865945  1
  H  H1548  1  0.88248211  0.94901945  0.49970365  1
  C  C1549  1  0.76264277  0.99487168  0.48825171  1
  H  H1550  1  0.77352698  0.84860252  0.27201060  1
  C  C1551  1  0.56018286  0.57234327  0.68003310  1
  O  O1552  1  0.67508513  0.57022603  0.57779185  1
  C  C1553  1  0.67321007  0.55427928  0.52695976  1
  C  C1554  1  0.52448684  0.60387438  0.65886100  1
  H  H1555  1  0.67652793  0.64403154  0.63430901  1
  H  H1556  1  0.62255104  0.62199192  0.50595060  1
  C  C1557  1  0.57960109  0.53829108  0.64153434  1
  H  H1558  1  0.56613149  0.53431547  0.59376652  1
  H  H1559  1  0.59807695  0.58154847  0.55772929  1
  C  C1560  1  0.69266563  0.69689180  0.70067837  1
  C  C1561  1  0.66561231  0.66252678  0.67591657  1
  O  O1562  1  0.51159489  0.63624969  0.68715633  1
  N  N1563  1  0.54671873  0.63914194  0.50678770  1
  O  O1564  1  0.50704762  0.58682158  0.59486290  1
  H  H1565  1  0.50447415  0.61879479  0.57667642  1
  C  C1566  1  0.63040470  0.51718660  0.72667570  1
  H  H1567  1  0.63514298  0.64918296  0.69674646  1
  C  C1568  1  0.60410993  0.58760621  0.50615461  1
  N  N1569  1  0.72101935  0.72933080  0.70072782  1
  C  C1570  1  0.61539980  0.51257612  0.66201516  1
  C  C1571  1  0.57322156  0.57882100  0.74302395  1
  C  C1572  1  0.75048117  0.55161407  0.52147656  1
  H  H1573  1  0.75313235  0.57173238  0.56843728  1
  H  H1574  1  0.81476284  0.51733553  0.70601584  1
  N  N1575  1  0.75909596  0.67007518  0.51611630  1
  H  H1576  1  0.78348351  0.70224441  0.64614840  1
  C  C1577  1  0.90307409  0.65232169  0.62453316  1
  C  C1578  1  0.88223092  0.66505921  0.68151088  1
  N  N1579  1  0.87687318  0.64274779  0.57563167  1
  C  C1580  1  0.94892726  0.65795674  0.60163296  1
  H  H1581  1  0.97077700  0.63841149  0.63819531  1
  H  H1582  1  0.95913485  0.69797407  0.60726805  1
  O  O1583  1  0.95869074  0.64883648  0.53489189  1
  Zn  Zn1584  1  0.82438997  0.67964844  0.54883385  1
  H  H1585  1  0.89046735  0.64471144  0.53126172  1
  C  C1586  1  0.83993906  0.68557754  0.69257860  1
  N  N1587  1  0.81340302  0.68680043  0.64651276  1
  C  C1588  1  0.94741792  0.54173277  0.59354304  1
  H  H1589  1  0.93442438  0.57396597  0.56557149  1
  C  C1590  1  0.91402511  0.66771201  0.73485377  1
  N  N1591  1  0.78206920  0.73390241  0.52846470  1
  H  H1592  1  0.98139737  0.55291856  0.60522257  1
  H  H1593  1  0.92830863  0.54092022  0.63648800  1
  C  C1594  1  0.84723275  0.50454794  0.70359165  1
  C  C1595  1  0.99885736  0.62863990  0.52101003  1
  H  H1596  1  0.81708021  0.55528892  0.50842653  1
  H  H1597  1  0.83571565  0.50010022  0.52088766  1
  H  H1598  1  0.90842302  0.74495428  0.72818252  1
  H  H1599  1  0.77868919  0.74551222  0.57320745  1
  H  H1600  1  0.92943274  0.59131059  0.74593404  1
  N  N1601  1  0.53419830  0.76208417  0.53581066  1
  H  H1602  1  0.55876510  0.83579203  0.59527847  1
  C  C1603  1  0.51172150  0.78033180  0.58147003  1
  H  H1604  1  0.50670054  0.85439119  0.61046144  1
  H  H1605  1  0.56014900  0.89552656  0.59435965  1
  H  H1606  1  0.53202022  0.82012701  0.66463346  1
  H  H1607  1  0.63066386  0.96916473  0.67280532  1
  C  C1608  1  0.55054598  0.93389051  0.58222061  1
  H  H1609  1  0.72671414  0.80209909  0.66015341  1
  O  O1610  1  0.62403420  0.85223469  0.66760393  1
  O  O1611  1  0.63338255  0.79190531  0.59733303  1
  C  C1612  1  0.64139690  0.83845303  0.62033398  1
  C  C1613  1  0.67753663  0.86464301  0.59403074  1
  H  H1614  1  0.67662148  0.92022077  0.66701419  1
  C  C1615  1  0.69020274  0.90944301  0.62196693  1
  H  H1616  1  0.60603610  0.78406699  0.61591376  1
  C  C1617  1  0.72500184  0.93287450  0.59687691  1
  C  C1618  1  0.70330939  0.84347263  0.54642504  1
  C  C1619  1  0.52865598  0.82576155  0.61400863  1
  H  H1620  1  0.57972646  0.95437316  0.56196578  1
  H  H1621  1  0.54062803  0.95144855  0.62601433  1
  C  C1622  1  0.74599872  0.91787372  0.54176419  1
  H  H1623  1  0.55956143  0.77404343  0.51199387  1
  C  C1624  1  0.73575440  0.87061594  0.52063452  1
  C  C1625  1  0.51732963  0.93085530  0.53122748  1
  H  H1626  1  0.69729468  0.80772226  0.53063870  1
  H  H1627  1  0.73317336  0.96789912  0.62076473  1
  C  C1628  1  0.74320582  0.81840058  0.69899766  1
  H  H1629  1  0.69693357  0.97652894  0.51945255  1
  H  H1630  1  0.59291780  0.84895640  0.72746703  1
  C  C1631  1  0.77851932  0.95040550  0.51010358  1
  C  C1632  1  0.76742214  0.85999578  0.69841566  1
  H  H1633  1  0.99434304  0.83192083  0.74289956  1
  C  C1634  1  0.85775477  0.97677541  0.69121117  1
  C  C1635  1  0.94535308  0.81117992  0.67957574  1
  O  O1636  1  0.91755042  0.77610825  0.56888349  1
  H  H1637  1  0.84616057  0.75065192  0.56500582  1
  H  H1638  1  0.88747972  0.95765451  0.67395548  1
  H  H1639  1  0.83671512  0.89086073  0.60582083  1
  H  H1640  1  0.83596402  0.81627359  0.69447335  1
  O  O1641  1  0.82353183  0.93740173  0.69757193  1
  H  H1642  1  0.77475682  0.88210995  0.65651069  1
  C  C1643  1  0.81872227  0.92591020  0.51440464  1
  H  H1644  1  0.85605230  0.86182716  0.53589566  1
  C  C1645  1  0.90130192  0.80851300  0.66352292  1
  C  C1646  1  0.95944686  0.82717467  0.73677332  1
  C  C1647  1  0.94460207  0.91729468  0.64277258  1
  C  C1648  1  0.88945572  0.79064741  0.60159113  1
  C  C1649  1  0.82858647  0.88270612  0.55638573  1
  H  H1650  1  0.96665374  0.80351467  0.63921840  1
  O  O1651  1  0.84695524  0.78343043  0.59040068  1
  O  O1652  1  0.97170268  0.93908095  0.65154776  1
  C  C1653  1  0.86914558  0.81961221  0.70790416  1
  H  H1654  1  0.80269983  0.85525706  0.56282606  1
  H  H1655  1  0.92760431  0.99219904  0.70904863  1
  H  H1656  1  0.86470070  0.98437673  0.74275367  1
  C  C1657  1  0.54735152  0.65474173  0.91923677  1
  C  C1658  1  0.54761578  0.56565033  0.90477992  1
  C  C1659  1  0.68923604  0.55770903  0.82936714  1
  H  H1660  1  0.68632437  0.58140183  0.78822287  1
  C  C1661  1  0.58791175  0.55931207  0.92946914  1
  H  H1662  1  0.53484556  0.69197966  0.91208996  1
  C  C1663  1  0.52511776  0.61190730  0.90341697  1
  H  H1664  1  0.66574645  0.57273441  0.86698913  1
  C  C1665  1  0.58697021  0.64885935  0.94215477  1
  C  C1666  1  0.60715485  0.54999344  0.76553183  1
  C  C1667  1  0.68478538  0.50175581  0.81276114  1
  C  C1668  1  0.60688661  0.60187859  0.95423505  1
  H  H1669  1  0.70061782  0.67281938  0.88393755  1
  N  N1670  1  0.71486574  0.68468102  0.84464839  1
  H  H1671  1  0.55689122  0.60517904  0.77405479  1
  H  H1672  1  0.60360937  0.52428058  0.94009399  1
  H  H1673  1  0.61492159  0.55302610  0.81640812  1
  H  H1674  1  0.60419283  0.68318257  0.95294320  1
  C  C1675  1  0.64252295  0.59754532  0.99682667  1
  C  C1676  1  0.70481992  0.72642600  0.82573420  1
  O  O1677  1  0.65129218  0.74601942  0.92718785  1
  H  H1678  1  0.71792702  0.55038687  0.93969121  1
  H  H1679  1  0.72292174  0.50478260  0.99655464  1
  H  H1680  1  0.53389391  0.53195689  0.88456024  1
  H  H1681  1  0.50155161  0.73747733  0.97120551  1
  H  H1682  1  0.63779826  0.73402443  0.84627945  1
  C  C1683  1  0.70927083  0.54130603  0.98758367  1
  H  H1684  1  0.72271925  0.56732756  0.84646310  1
  C  C1685  1  0.72035764  0.74445620  0.75843308  1
  H  H1686  1  0.93724206  0.51364165  0.79098408  1
  O  O1687  1  0.81629856  0.55612325  0.80650006  1
  C  C1688  1  0.97286355  0.68297917  0.82860467  1
  C  C1689  1  0.96329715  0.63427992  0.81375112  1
  H  H1690  1  0.98078404  0.60470895  0.83955222  1
  C  C1691  1  0.85423740  0.54316630  0.80985499  1
  O  O1692  1  0.87531014  0.54677552  0.85768502  1
  C  C1693  1  0.93558130  0.62733796  0.76528419  1
  H  H1694  1  0.79163715  0.71340506  0.76646420  1
  C  C1695  1  0.95716104  0.72347615  0.79653928  1
  C  C1696  1  0.99980898  0.68754668  0.88606079  1
  C  C1697  1  0.82744638  0.70246477  0.75927107  1
  H  H1698  1  0.84596667  0.73600828  0.77473125  1
  C  C1699  1  0.92560539  0.71430620  0.75000535  1
  H  H1700  1  0.83328925  0.67228374  0.79341652  1
  C  C1701  1  0.87295811  0.51633958  0.75366760  1
  C  C1702  1  0.91609192  0.50069837  0.75464332  1
  C  C1703  1  0.66886566  0.75088044  0.86105230  1
  O  O1704  1  0.60898083  0.99263794  0.76532962  1
  C  C1705  1  0.50337137  0.85157157  0.78090675  1
  H  H1706  1  0.53513751  0.98742634  0.96203908  1
  H  H1707  1  0.67155175  0.79082281  0.85072075  1
  H  H1708  1  0.54246322  0.96012354  0.88307862  1
  C  C1709  1  0.69673009  0.96994167  0.80771796  1
  C  C1710  1  0.56023698  0.90491845  0.81682594  1
  C  C1711  1  0.53115520  0.93453328  0.84838395  1
  H  H1712  1  0.59374569  0.91113270  0.82085773  1
  C  C1713  1  0.73558783  0.96350480  0.83888313  1
  H  H1714  1  0.60633531  0.82272716  0.86798398  1
  C  C1715  1  0.60188723  0.81739058  0.91829568  1
  H  H1716  1  0.55597923  0.87764468  0.92074337  1
  C  C1717  1  0.57416733  0.84917487  0.94643494  1
  C  C1718  1  0.62187278  0.77834417  0.94806999  1
  C  C1719  1  0.54815992  0.86282750  0.78449834  1
  H  H1720  1  0.68423867  0.94064583  0.78000797  1
  O  O1721  1  0.58013433  0.83261472  0.76640565  1
  C  C1722  1  0.74336026  0.84385264  0.95358120  1
  H  H1723  1  0.73407070  0.93349484  0.97521236  1
  C  C1724  1  0.74385975  0.79089442  0.75629790  1
  H  H1725  1  0.62193118  0.96353015  0.96590252  1
  H  H1726  1  0.54563692  0.97261304  0.75960651  1
  C  C1727  1  0.79719946  0.99222811  0.91100481  1
  H  H1728  1  0.88485662  0.93967040  0.86916640  1
  H  H1729  1  0.75193221  0.78723727  0.86192496  1
  C  C1730  1  0.98888103  0.91499117  0.90978634  1
  H  H1731  1  0.98913340  0.88332115  0.94441713  1
  H  H1732  1  0.95190598  0.81123035  0.99269239  1
  H  H1733  1  0.89363415  0.79057987  0.90875633  1
  H  H1734  1  0.75460722  0.93145290  0.83185471  1
  O  O1735  1  0.77127488  0.85893562  0.97402810  1
  N  N1736  1  0.99428997  0.91321346  0.79679646  1
  C  C1737  1  0.75374964  0.99916297  0.88014588  1
  H  H1738  1  0.98754022  0.91175176  0.75026223  1
  H  H1739  1  0.86358750  0.83821173  0.80880795  1
  C  C1740  1  0.81787280  0.91484273  0.75212446  1
  H  H1741  1  0.86861718  0.83516931  0.96498958  1
  C  C1742  1  0.88376903  0.83211064  0.76651377  1
  H  H1743  1  0.96409289  0.98461940  0.80913122  1
  C  C1744  1  0.93887240  0.86498816  0.84181052  1
  H  H1745  1  0.96562740  0.94321109  0.92679226  1
  C  C1746  1  0.89066885  0.82972720  0.92778543  1
  C  C1747  1  0.76195175  0.80536461  0.81695550  1
  H  H1748  1  0.79878692  0.86404235  0.85595110  1
  C  C1749  1  0.90862124  0.86564677  0.89515683  1
  C  C1750  1  0.97478170  0.89523341  0.84619237  1
  H  H1751  1  0.85246155  0.91147206  0.91157481  1
  C  C1752  1  0.79579260  0.97054503  0.97091388  1
  C  C1753  1  0.92845464  0.84021896  0.78237528  1
  Zn  Zn1754  1  0.88795641  0.96956914  0.98171948  1
  N  N1755  1  0.88551998  0.91305403  0.90421511  1
  H  H1756  1  0.96873657  0.75924295  0.80596262  1
  C  C1757  1  0.78989669  0.87260222  0.75285301  1
  O  O1758  1  0.83590025  0.92642415  0.79928978  1
  C  C1759  1  0.78592640  0.84716114  0.81120801  1
