# generated using pymatgen
data_ZnH22C24(NO)4
_symmetry_space_group_name_H-M   'P 1'
_cell_length_a   27.98508005
_cell_length_b   25.79183625
_cell_length_c   25.95701706
_cell_angle_alpha   90.00000000
_cell_angle_beta   90.00000000
_cell_angle_gamma   90.00000000
_symmetry_Int_Tables_number   1
_chemical_formula_structural   ZnH22C24(NO)4
_chemical_formula_sum   'Zn32 H704 C768 N128 O128'
_cell_volume   18735.42714894
_cell_formula_units_Z   32
loop_
 _symmetry_equiv_pos_site_id
 _symmetry_equiv_pos_as_xyz
  1  'x, y, z'
loop_
 _atom_site_type_symbol
 _atom_site_label
 _atom_site_symmetry_multiplicity
 _atom_site_fract_x
 _atom_site_fract_y
 _atom_site_fract_z
 _atom_site_occupancy
  H  H0  1  0.13909860  0.17812250  0.12919061  1
  C  C1  1  0.13238781  0.19174799  0.09043360  1
  C  C2  1  0.08880911  0.18445444  0.06273890  1
  C  C3  1  0.04831693  0.15509749  0.08470226  1
  C  C4  1  0.16804172  0.16668854  0.23063738  1
  C  C5  1  0.19821250  0.12577259  0.21218462  1
  N  N6  1  0.07133380  0.02717455  0.05090416  1
  H  H7  1  0.06526729  0.06527609  0.06068204  1
  H  H8  1  0.07301323  0.04425652  0.15696965  1
  C  C9  1  0.19358719  0.07369691  0.22671579  1
  C  C10  1  0.10055558  0.01980093  0.13611950  1
  H  H11  1  0.22532008  0.14253785  0.18732905  1
  H  H12  1  0.21419256  0.04068919  0.20997038  1
  H  H13  1  0.03611540  0.03107798  0.23020336  1
  C  C14  1  0.16369722  0.22904287  0.06717692  1
  H  H15  1  0.13037954  0.04726726  0.12563017  1
  O  O16  1  0.04780128  0.13459913  0.12568518  1
  C  C17  1  0.17880123  0.22064789  0.21544880  1
  O  O18  1  0.00485364  0.15467479  0.05401661  1
  H  H19  1  0.19792208  0.23977030  0.08580301  1
  C  C20  1  0.15381922  0.25187368  0.01864030  1
  O  O21  1  0.11773220  0.38594023  0.10756947  1
  C  C22  1  0.15519107  0.41208648  0.13434643  1
  H  H23  1  0.14689354  0.31539866  0.11410403  1
  C  C24  1  0.13194991  0.33831064  0.08075896  1
  H  H25  1  0.10144014  0.31537380  0.06556963  1
  H  H26  1  0.08872270  0.45970857  0.09793276  1
  O  O27  1  0.18922371  0.39083559  0.14911287  1
  C  C28  1  0.16772648  0.34041461  0.03699277  1
  N  N29  1  0.18429165  0.38341298  0.01571372  1
  O  O30  1  0.14986037  0.26395022  0.24161622  1
  C  C31  1  0.15194459  0.46756544  0.14506209  1
  H  H32  1  0.17527493  0.41994716  0.02356015  1
  O  O33  1  0.20908205  0.23231595  0.18568804  1
  H  H34  1  0.17263706  0.29119497  0.22951149  1
  H  H35  1  0.11315330  0.42243823  0.22805318  1
  C  C36  1  0.18433980  0.49510348  0.17828815  1
  C  C37  1  0.11163768  0.48705929  0.11884886  1
  C  C38  1  0.00946133  0.42493581  0.01302577  1
  H  H39  1  0.22224795  0.01996126  0.11218312  1
  C  C40  1  0.07954373  0.20571251  0.01347111  1
  H  H41  1  0.21406658  0.47544947  0.19650059  1
  H  H42  1  0.04711832  0.01785883  0.02261505  1
  H  H43  1  0.05637015  0.49675681  0.01136304  1
  H  H44  1  0.15820163  0.37064001  0.23723882  1
  C  C45  1  0.18301597  0.29963572  0.00303306  1
  H  H46  1  0.49810635  0.37236743  0.08840083  1
  H  H47  1  0.38772958  0.49780563  0.04545467  1
  C  C48  1  0.38777558  0.26694007  0.06027231  1
  C  C49  1  0.40852504  0.49854602  0.00792255  1
  C  C50  1  0.49101238  0.10397868  0.19198349  1
  N  N51  1  0.48464635  0.10131611  0.00282684  1
  H  H52  1  0.33365291  0.47691969  0.22471506  1
  H  H53  1  0.41026995  0.23556377  0.17228583  1
  H  H54  1  0.37277163  0.23491479  0.03828863  1
  H  H55  1  0.43631966  0.37822658  0.15020668  1
  C  C56  1  0.42292168  0.34974701  0.12375944  1
  H  H57  1  0.49329341  0.09756044  0.03978767  1
  C  C58  1  0.45769064  0.09186986  0.14771644  1
  C  C59  1  0.47497683  0.10956030  0.24379603  1
  O  O60  1  0.47102049  0.09356157  0.10312906  1
  O  O61  1  0.41169463  0.07660014  0.16443463  1
  H  H62  1  0.42907522  0.19399716  0.22865669  1
  C  C63  1  0.36410226  0.31665750  0.06277051  1
  C  C64  1  0.48712419  0.29155481  0.15909667  1
  H  H65  1  0.40034291  0.06244575  0.13166556  1
  H  H66  1  0.36380432  0.39304148  0.09740946  1
  O  O67  1  0.29124999  0.03093743  0.18263088  1
  H  H68  1  0.26346483  0.35806916  0.02048667  1
  O  O69  1  0.29199074  0.36958338  0.03730638  1
  C  C70  1  0.43729293  0.22386348  0.19929821  1
  H  H71  1  0.45415796  0.22443443  0.08646934  1
  C  C72  1  0.42885228  0.25869368  0.08913399  1
  C  C73  1  0.48088101  0.24866732  0.19619154  1
  C  C74  1  0.44651943  0.29910029  0.12278851  1
  H  H75  1  0.47073487  0.45532451  0.03821133  1
  H  H76  1  0.40536411  0.49394434  0.20754655  1
  C  C77  1  0.32013968  0.32001460  0.03349330  1
  C  C78  1  0.38338534  0.35546224  0.09570068  1
  O  O79  1  0.44384430  0.47407918  0.12591815  1
  C  C80  1  0.45292598  0.47279395  0.00390418  1
  H  H81  1  0.45091184  0.01256457  0.01354692  1
  O  O82  1  0.30674314  0.28787767  0.00427422  1
  C  C83  1  0.04303641  0.01143142  0.26887731  1
  H  H84  1  0.02634111  0.03597128  0.30111661  1
  C  C85  1  0.07563856  0.37760722  0.43955562  1
  C  C86  1  0.08635212  0.39889770  0.39377992  1
  C  C87  1  0.09773853  0.41979510  0.34651086  1
  C  C88  1  0.10700234  0.38679844  0.30211634  1
  H  H89  1  0.08171982  0.32816462  0.33400861  1
  N  N90  1  0.10272846  0.33520949  0.30176918  1
  H  H91  1  0.21437494  0.43144654  0.32999073  1
  N  N92  1  0.06439379  0.35752392  0.47931978  1
  O  O93  1  0.21561864  0.46638251  0.31881237  1
  H  H94  1  0.11292106  0.30531070  0.27443360  1
  H  H95  1  0.07234550  0.31926668  0.48168875  1
  H  H96  1  0.11831841  0.48985490  0.42113960  1
  C  C97  1  0.10344791  0.47747517  0.34042919  1
  C  C98  1  0.14183357  0.01057443  0.27123391  1
  C  C99  1  0.11612860  0.10370458  0.27379128  1
  H  H100  1  0.10465426  0.18627574  0.27366441  1
  H  H101  1  0.08320245  0.09445878  0.29467155  1
  H  H102  1  0.17309374  0.03935128  0.48505384  1
  C  C103  1  0.12852823  0.15456871  0.26340565  1
  H  H104  1  0.09445557  0.48666974  0.25476021  1
  C  C105  1  0.15077407  0.06481817  0.25610390  1
  H  H106  1  0.16423738  0.43245161  0.26819077  1
  C  C107  1  0.13880985  0.40325815  0.25616909  1
  H  H108  1  0.15949754  0.38735207  0.49878382  1
  C  C109  1  0.44483425  0.47659123  0.43023295  1
  O  O110  1  0.47008563  0.21448980  0.37146809  1
  C  C111  1  0.40834556  0.49419168  0.46807308  1
  H  H112  1  0.49929524  0.12196938  0.32364787  1
  O  O113  1  0.37137940  0.47283837  0.47777536  1
  H  H114  1  0.35896453  0.01057383  0.25200186  1
  H  H115  1  0.48430390  0.18862877  0.48482865  1
  C  C116  1  0.25772233  0.46397899  0.28634700  1
  C  C117  1  0.43645566  0.42896343  0.40468273  1
  O  O118  1  0.27425752  0.42402489  0.27223735  1
  H  H119  1  0.40224473  0.40931390  0.41248080  1
  C  C120  1  0.45528581  0.19434150  0.40326585  1
  H  H121  1  0.45946849  0.37693624  0.34375617  1
  C  C122  1  0.46703355  0.41039735  0.36722978  1
  H  H123  1  0.44041090  0.09442753  0.25491046  1
  C  C124  1  0.14709971  0.07517224  0.68886826  1
  C  C125  1  0.11849642  0.10533062  0.65432092  1
  C  C126  1  0.08949228  0.07830538  0.61875660  1
  H  H127  1  0.11739972  0.14922144  0.65388604  1
  C  C128  1  0.09757432  0.02391870  0.61185391  1
  C  C129  1  0.18136302  0.10174514  0.72381605  1
  H  H130  1  0.02828859  0.03185350  0.65777023  1
  C  C131  1  0.02078197  0.04262597  0.69623684  1
  H  H132  1  0.06204218  0.09842999  0.59606310  1
  O  O133  1  0.17925470  0.14757965  0.73181330  1
  H  H134  1  0.08931903  0.02301413  0.72835855  1
  C  C135  1  0.15325421  0.02117531  0.68386457  1
  C  C136  1  0.05475927  0.03780747  0.73575812  1
  C  C137  1  0.06582085  0.27823526  0.72835646  1
  C  C138  1  0.01983092  0.28575598  0.70588628  1
  N  N139  1  0.09515144  0.32049169  0.73262664  1
  N  N140  1  0.04965250  0.34089032  0.63540048  1
  Zn  Zn141  1  0.10686248  0.36789828  0.66832976  1
  H  H142  1  0.04200530  0.37118451  0.61069508  1
  H  H143  1  0.03538648  0.40270090  0.70044189  1
  H  H144  1  0.11833856  0.34312248  0.57924147  1
  N  N145  1  0.14368796  0.36218120  0.59979913  1
  N  N146  1  0.06485431  0.42453818  0.70565598  1
  N  N147  1  0.16914699  0.39950562  0.69612253  1
  C  C148  1  0.20273122  0.42285709  0.67238909  1
  C  C149  1  0.06817345  0.47577609  0.69510894  1
  C  C150  1  0.18066005  0.38876296  0.58346517  1
  H  H151  1  0.15536441  0.40979131  0.73214325  1
  C  C152  1  0.20881240  0.41950718  0.61790669  1
  C  C153  1  0.19088872  0.39111349  0.52467293  1
  C  C154  1  0.01691370  0.31319236  0.65760277  1
  O  O155  1  0.07858137  0.48092623  0.53204438  1
  H  H156  1  0.17162853  0.48035222  0.53247616  1
  H  H157  1  0.17768298  0.00015765  0.70837987  1
  C  C158  1  0.23793499  0.45368420  0.70861509  1
  H  H159  1  0.21109682  0.42695869  0.51287174  1
  H  H160  1  0.23216290  0.44205669  0.74799692  1
  H  H161  1  0.13517529  0.08804003  0.51305013  1
  H  H162  1  0.16571160  0.04753545  0.55863050  1
  C  C163  1  0.14823017  0.04770026  0.51912269  1
  H  H164  1  0.11389224  0.21320830  0.73921603  1
  H  H165  1  0.21259185  0.35701648  0.51781441  1
  C  C166  1  0.10510883  0.00965282  0.51857363  1
  H  H167  1  0.23015307  0.49609371  0.70432528  1
  C  C168  1  0.10897870  0.49929185  0.71827874  1
  H  H169  1  0.12853995  0.31927410  0.74639754  1
  H  H170  1  0.04978775  0.19645504  0.74044800  1
  H  H171  1  0.49990894  0.27339115  0.72913799  1
  H  H172  1  0.49526663  0.22668665  0.56261950  1
  H  H173  1  0.43978297  0.01414872  0.69638628  1
  H  H174  1  0.26493117  0.35165367  0.74422817  1
  C  C175  1  0.48005779  0.24837356  0.59549075  1
  C  C176  1  0.29630095  0.43479879  0.59137463  1
  C  C177  1  0.44157598  0.30291763  0.68431196  1
  O  O178  1  0.36299964  0.04497226  0.70584896  1
  H  H179  1  0.30079258  0.39322368  0.58400405  1
  H  H180  1  0.42683390  0.29376323  0.55254780  1
  C  C181  1  0.44151216  0.28201484  0.59112256  1
  C  C182  1  0.25000052  0.45576242  0.60522135  1
  H  H183  1  0.46798187  0.40068783  0.71771483  1
  C  C184  1  0.38117510  0.34887606  0.62510292  1
  C  C185  1  0.39887462  0.08444874  0.71172156  1
  C  C186  1  0.33524997  0.46764735  0.59770932  1
  C  C187  1  0.48369112  0.27161439  0.68871349  1
  C  C188  1  0.42121594  0.30715978  0.63391535  1
  H  H189  1  0.35450258  0.05004731  0.67037757  1
  H  H190  1  0.27546778  0.44667142  0.70059475  1
  O  O191  1  0.36353574  0.37248127  0.66094795  1
  H  H192  1  0.31444803  0.39168760  0.74618067  1
  O  O193  1  0.36223541  0.35323484  0.58280095  1
  H  H194  1  0.42427854  0.32181582  0.71819653  1
  O  O195  1  0.41191284  0.10947646  0.67653413  1
  H  H196  1  0.48669839  0.13718596  0.66251148  1
  H  H197  1  0.37199499  0.44967651  0.59554837  1
  H  H198  1  0.47000456  0.14587243  0.74450460  1
  C  C199  1  0.13631053  0.08775470  0.83054886  1
  C  C200  1  0.04810898  0.19675131  0.87697789  1
  C  C201  1  0.10919792  0.04208969  0.85394750  1
  H  H202  1  0.12711662  0.18872909  0.91506728  1
  H  H203  1  0.01206796  0.18927539  0.86378471  1
  C  C204  1  0.15161359  0.20734473  0.88765509  1
  C  C205  1  0.19269171  0.18183137  0.87265634  1
  C  C206  1  0.06434144  0.02574462  0.83378089  1
  N  N207  1  0.12850159  0.01622523  0.89183010  1
  H  H208  1  0.15834578  0.06948608  0.79745292  1
  C  C209  1  0.04324340  0.05473737  0.78801612  1
  C  C210  1  0.05238885  0.25485851  0.88340529  1
  H  H211  1  0.07427120  0.17767440  0.84922435  1
  H  H212  1  0.11049275  0.11858987  0.81591860  1
  C  C213  1  0.22013040  0.20960872  0.83742281  1
  H  H214  1  0.15966071  0.02501508  0.90762839  1
  H  H215  1  0.16243540  0.10547690  0.85542804  1
  C  C216  1  0.11085525  0.24050025  0.99136064  1
  H  H217  1  0.20572211  0.14434828  0.88647955  1
  H  H218  1  0.05233017  0.17707026  0.91426419  1
  C  C219  1  0.14119365  0.25775560  0.86397466  1
  H  H220  1  0.00657918  0.26886895  0.80942290  1
  H  H221  1  0.10671515  0.25407655  0.95148351  1
  H  H222  1  0.01487842  0.34014355  0.77259115  1
  N  N223  1  0.01610627  0.28139451  0.90394431  1
  C  C224  1  0.21368713  0.25844586  0.81315232  1
  H  H225  1  0.13457417  0.34127673  0.96023775  1
  H  H226  1  0.02238931  0.32079920  0.90812500  1
  H  H227  1  0.07382554  0.45966120  0.92048380  1
  N  N228  1  0.10416719  0.47570004  0.93026365  1
  C  C229  1  0.10107629  0.35124516  0.94467649  1
  C  C230  1  0.09590448  0.28304221  0.87646862  1
  C  C231  1  0.09645215  0.34102957  0.88616337  1
  H  H232  1  0.09408253  0.39136520  0.95448416  1
  N  N233  1  0.10637507  0.37915855  0.85404698  1
  H  H234  1  0.07409522  0.32664977  0.96668049  1
  C  C235  1  0.21298599  0.31573350  0.96198846  1
  Zn  Zn236  1  0.14044605  0.44462056  0.87415147  1
  N  N237  1  0.20215967  0.47759225  0.89525357  1
  N  N238  1  0.21737719  0.36603492  0.96189109  1
  C  C239  1  0.17186801  0.28474458  0.82844249  1
  H  H240  1  0.16332063  0.32671539  0.81702970  1
  N  N241  1  0.12396590  0.45164352  0.79741956  1
  H  H242  1  0.21979881  0.48262943  0.85991058  1
  Zn  Zn243  1  0.07830628  0.39399545  0.77844096  1
  C  C244  1  0.13631034  0.48896981  0.76644757  1
  Zn  Zn245  1  0.23681105  0.41122188  0.90735434  1
  N  N246  1  0.00998674  0.37390337  0.78969145  1
  C  C247  1  0.00018769  0.08573694  0.79750714  1
  O  O248  1  0.15499893  0.10553612  0.94908874  1
  C  C249  1  0.12402461  0.10719164  0.97265963  1
  H  H250  1  0.23991064  0.27829069  0.78953888  1
  C  C251  1  0.24405284  0.28400398  0.92395715  1
  H  H252  1  0.05227356  0.49700555  0.80427994  1
  H  H253  1  0.22145274  0.25858547  0.90162482  1
  O  O254  1  0.21484275  0.06843022  0.75133560  1
  H  H255  1  0.22888075  0.09427033  0.77276916  1
  H  H256  1  0.07631586  0.23059981  0.79591904  1
  C  C257  1  0.07677442  0.22680493  0.75142990  1
  H  H258  1  0.04265012  0.19791288  0.99765560  1
  O  O259  1  0.01101339  0.39370075  0.98644114  1
  H  H260  1  0.49438816  0.16009548  0.83808640  1
  H  H261  1  0.29893894  0.44289288  0.95234488  1
  C  C262  1  0.37291759  0.46628003  0.78776057  1
  C  C263  1  0.42084666  0.46158875  0.77714773  1
  C  C264  1  0.29967782  0.36580826  0.82493696  1
  C  C265  1  0.47817108  0.34799597  0.84095581  1
  O  O266  1  0.27197697  0.47641114  0.81417972  1
  H  H267  1  0.26923572  0.25697971  0.94634081  1
  H  H268  1  0.26318625  0.30916646  0.89486135  1
  H  H269  1  0.35252932  0.43228282  0.80037061  1
  O  O270  1  0.29752858  0.20792360  0.80526299  1
  H  H271  1  0.32276822  0.32292078  0.75609050  1
  C  C272  1  0.38328294  0.40996040  0.93795248  1
  C  C273  1  0.41851862  0.08472758  0.76398848  1
  H  H274  1  0.47149994  0.24518771  0.92281338  1
  O  O275  1  0.28403052  0.00763802  0.94815009  1
  H  H276  1  0.29654118  0.45853727  0.83155421  1
  C  C277  1  0.48264644  0.16312645  0.93102119  1
  C  C278  1  0.46202240  0.11249757  0.91899830  1
  C  C279  1  0.34474477  0.37358823  0.85298194  1
  C  C280  1  0.48334067  0.21256510  0.89804343  1
  C  C281  1  0.39098476  0.34973967  0.83702491  1
  C  C282  1  0.39280672  0.29666898  0.81925104  1
  C  C283  1  0.47748936  0.29905141  0.81913922  1
  C  C284  1  0.43591982  0.27088987  0.80991665  1
  C  C285  1  0.47587177  0.47676591  0.95608547  1
  H  H286  1  0.35810868  0.27948648  0.81110426  1
  N  N287  1  0.30454249  0.42677326  0.91709251  1
  H  H288  1  0.43901070  0.42457778  0.77723984  1
  C  C289  1  0.44348167  0.02516117  0.97416833  1
  H  H290  1  0.40340040  0.02382620  0.96770374  1
  H  H291  1  0.43426861  0.41653679  0.86597132  1
  C  C292  1  0.34178978  0.40241862  0.90049087  1
  C  C293  1  0.30002175  0.35707858  0.76491476  1
  H  H294  1  0.39843795  0.45005821  0.93659922  1
  H  H295  1  0.41181083  0.38169279  0.93298969  1
  N  N296  1  0.25694917  0.37237006  0.84322543  1
  C  C297  1  0.43629931  0.37502248  0.84900014  1
  H  H298  1  0.45891071  0.20670370  0.86425367  1
  C  C299  1  0.46836899  0.12974474  0.82683052  1
  C  C300  1  0.44901245  0.09655096  0.86653307  1
  C  C301  1  0.46213975  0.08081585  0.96476886  1
  C  C302  1  0.26726534  0.18394043  0.82622627  1
  H  H303  1  0.37419610  0.02058979  0.79479656  1
  H  H304  1  0.30981340  0.12841991  0.83196229  1
  C  C305  1  0.45290567  0.12382658  0.77645998  1
  H  H306  1  0.36896013  0.40334615  0.97843194  1
  C  C307  1  0.41964641  0.05480689  0.85053468  1
  O  O308  1  0.27589979  0.13056195  0.84144453  1
  H  H309  1  0.40687064  0.02746325  0.87944700  1
  H  H310  1  0.43606266  0.23126590  0.79297437  1
  C  C311  1  0.40042094  0.05107892  0.80246818  1
  C  C312  1  0.12114224  0.62696249  0.16429242  1
  C  C313  1  0.13259072  0.56900956  0.15790129  1
  C  C314  1  0.10228497  0.53923664  0.12719470  1
  C  C315  1  0.09915956  0.65776481  0.12579714  1
  N  N316  1  0.08088825  0.70266357  0.13847103  1
  H  H317  1  0.19688262  0.57402955  0.20469739  1
  H  H318  1  0.07184732  0.67132847  0.05036419  1
  C  C319  1  0.13729007  0.64905879  0.21183746  1
  C  C320  1  0.09446272  0.63904713  0.06975072  1
  H  H321  1  0.12823335  0.63595909  0.04857988  1
  H  H322  1  0.07228866  0.60435755  0.06976091  1
  C  C323  1  0.17481981  0.54780492  0.18304904  1
  H  H324  1  0.06975599  0.55681966  0.11125198  1
  C  C325  1  0.21678212  0.63643355  0.07218801  1
  Zn  Zn326  1  0.04457275  0.72183105  0.20161657  1
  C  C327  1  0.21259813  0.58331899  0.08345266  1
  C  C328  1  0.19201418  0.55027186  0.04682672  1
  H  H329  1  0.06565933  0.72762080  0.11162978  1
  H  H330  1  0.22504471  0.56776482  0.11886562  1
  C  C331  1  0.03082045  0.59719100  0.23003991  1
  H  H332  1  0.07024260  0.59400130  0.22538320  1
  C  C333  1  0.24057250  0.66605779  0.11403052  1
  H  H334  1  0.10512631  0.53473827  0.04311285  1
  H  H335  1  0.01392544  0.89945902  0.16537509  1
  H  H336  1  0.18611928  0.80721349  0.12031172  1
  H  H337  1  0.06813836  0.94526813  0.18594388  1
  C  C338  1  0.18917755  0.82535083  0.21975714  1
  C  C339  1  0.08989696  0.91342754  0.17324487  1
  C  C340  1  0.11892835  0.88509655  0.20615011  1
  C  C341  1  0.07453448  0.93669050  0.08127949  1
  C  C342  1  0.09264657  0.89857457  0.12054050  1
  C  C343  1  0.15700841  0.83456226  0.13420752  1
  C  C344  1  0.15311073  0.84950561  0.18759444  1
  C  C345  1  0.12465604  0.85781461  0.10113505  1
  H  H346  1  0.12876646  0.85375244  0.05936855  1
  H  H347  1  0.17033534  0.93444912  0.10061721  1
  C  C348  1  0.20102627  0.94595128  0.07513786  1
  H  H349  1  0.12321322  0.89269640  0.24830565  1
  O  O350  1  0.21864701  0.78818554  0.20226866  1
  C  C351  1  0.05875048  0.91099507  0.03322125  1
  H  H352  1  0.02971286  0.83865106  0.13948043  1
  C  C353  1  0.03887654  0.85460533  0.03562385  1
  C  C354  1  0.22870893  0.98028280  0.10673456  1
  H  H355  1  0.05794623  0.82954800  0.06502577  1
  C  C356  1  0.22286011  0.89238786  0.06357380  1
  C  C357  1  0.20130372  0.65903952  0.02500386  1
  H  H358  1  0.00620156  0.96442716  0.09438670  1
  C  C359  1  0.07924315  0.99022059  0.08887503  1
  H  H360  1  0.07407482  0.74839044  0.01835349  1
  H  H361  1  0.14711489  0.98708883  0.02809072  1
  C  C362  1  0.18096759  0.96812519  0.02433671  1
  H  H363  1  0.18992649  0.50873973  0.05726719  1
  O  O364  1  0.24803184  0.64810711  0.15482857  1
  O  O365  1  0.24413735  0.72402794  0.10722532  1
  H  H366  1  0.00719485  0.77174147  0.12561374  1
  H  H367  1  0.19697341  0.62986270  0.24745623  1
  H  H368  1  0.11692562  0.99398803  0.16681428  1
  C  C369  1  0.08456302  0.52790941  0.00715589  1
  C  C370  1  0.20573084  0.87084612  0.01641131  1
  H  H371  1  0.20599118  0.70115041  0.01608214  1
  H  H372  1  0.01741799  0.60791845  0.19115488  1
  N  N373  1  0.13830440  0.67983038  0.24770732  1
  H  H374  1  0.08721511  0.78266689  0.24494165  1
  H  H375  1  0.01955459  0.55750347  0.24393296  1
  H  H376  1  0.06563097  0.56676952  0.00237011  1
  H  H377  1  0.20460960  0.99821654  0.00640495  1
  H  H378  1  0.28275617  0.63968737  0.00459326  1
  H  H379  1  0.29022176  0.51191659  0.08854707  1
  H  H380  1  0.25903578  0.76019547  0.04231768  1
  H  H381  1  0.34861808  0.92170135  0.00688509  1
  H  H382  1  0.25227066  0.73008268  0.14333306  1
  N  N383  1  0.39767631  0.73403244  0.04048578  1
  C  C384  1  0.29112926  0.98611494  0.17464024  1
  C  C385  1  0.47171342  0.50745837  0.13393690  1
  C  C386  1  0.49493672  0.95555943  0.09947602  1
  Zn  Zn387  1  0.39658150  0.65855677  0.06103024  1
  C  C388  1  0.33874789  0.56624008  0.05975536  1
  C  C389  1  0.26607483  0.79231761  0.01396323  1
  H  H390  1  0.44431830  0.58329602  0.07011699  1
  N  N391  1  0.36544868  0.68438329  0.12834247  1
  C  C392  1  0.25665967  0.76066553  0.24076025  1
  C  C393  1  0.33022573  0.65973999  0.21713037  1
  H  H394  1  0.44411406  0.64159129  0.16116961  1
  H  H395  1  0.41487751  0.73546681  0.18184668  1
  H  H396  1  0.49432536  0.84229464  0.02838903  1
  C  C397  1  0.49323589  0.62339462  0.02721384  1
  H  H398  1  0.38682583  0.98686532  0.19017728  1
  H  H399  1  0.38648629  0.92287717  0.06176079  1
  N  N400  1  0.42079541  0.77203739  0.16786976  1
  C  C401  1  0.26309878  0.95606164  0.13488279  1
  C  C402  1  0.47061146  0.53411845  0.18474671  1
  C  C403  1  0.27210002  0.90115167  0.13756632  1
  C  C404  1  0.33421813  0.56137061  0.21519402  1
  H  H405  1  0.28955612  0.82190904  0.03270910  1
  C  C406  1  0.41724105  0.81032608  0.20259339  1
  C  C407  1  0.36343693  0.97506348  0.22519194  1
  N  N408  1  0.36119765  0.82421946  0.08560765  1
  H  H409  1  0.36589791  0.56099319  0.18978328  1
  C  C410  1  0.45570198  0.88482110  0.14597658  1
  N  N411  1  0.45763648  0.61835451  0.06069479  1
  C  C412  1  0.25274204  0.86842135  0.10129682  1
  H  H413  1  0.32357430  0.90849585  0.07113899  1
  H  H414  1  0.29727870  0.88654293  0.16720519  1
  H  H415  1  0.46733958  0.96513668  0.17435717  1
  C  C416  1  0.31239150  0.60900913  0.23285063  1
  C  C417  1  0.48679903  0.86850138  0.06143929  1
  C  C418  1  0.43365668  0.52142249  0.21854910  1
  H  H419  1  0.44528500  0.80894379  0.10071424  1
  C  C420  1  0.40864918  0.90550554  0.22258914  1
  N  N421  1  0.36494070  0.59589651  0.03144537  1
  C  C422  1  0.46884709  0.93769293  0.14044869  1
  Zn  Zn423  1  0.38215811  0.75697886  0.10824945  1
  N  N424  1  0.29935247  0.75354146  0.21344638  1
  H  H425  1  0.26153194  0.82760021  0.10057133  1
  C  C426  1  0.35681969  0.90160497  0.04474146  1
  C  C427  1  0.36798911  0.84349575  0.03937591  1
  O  O428  1  0.31844104  0.95264434  0.20644671  1
  H  H429  1  0.35025040  0.83761407  0.12032088  1
  C  C430  1  0.42622985  0.86766208  0.19047952  1
  C  C431  1  0.46083303  0.85031252  0.10246630  1
  H  H432  1  0.33089570  0.68396422  0.11356519  1
  C  C433  1  0.41453013  0.63580171  0.18600807  1
  C  C434  1  0.31750486  0.51431104  0.23304495  1
  C  C435  1  0.37242639  0.65984609  0.17733536  1
  H  H436  1  0.31261121  0.56585891  0.13406183  1
  C  C437  1  0.30707098  0.70728048  0.22201002  1
  H  H438  1  0.41981792  0.61256211  0.22094068  1
  C  C439  1  0.31375623  0.54626750  0.09754994  1
  H  H440  1  0.06616318  0.72606043  0.39079904  1
  N  N441  1  0.07719312  0.68718458  0.38857119  1
  C  C442  1  0.05380067  0.66240772  0.36041637  1
  C  C443  1  0.02785658  0.62760657  0.32772795  1
  C  C444  1  0.14297138  0.58279265  0.33188897  1
  H  H445  1  0.06269679  0.57998981  0.41590317  1
  O  O446  1  0.16383038  0.62761347  0.33106124  1
  C  C447  1  0.13756602  0.55475648  0.37860066  1
  H  H448  1  0.15495309  0.57068711  0.41508794  1
  H  H449  1  0.21837664  0.68544769  0.37404310  1
  C  C450  1  0.12430577  0.55319355  0.28972325  1
  C  C451  1  0.03016326  0.56267569  0.39904499  1
  H  H452  1  0.22666736  0.55809013  0.31285638  1
  N  N453  1  0.00782752  0.68480510  0.25691423  1
  H  H454  1  0.19426774  0.69265401  0.28350172  1
  C  C455  1  0.17690626  0.65474262  0.27523353  1
  H  H456  1  0.17992020  0.66768743  0.47256924  1
  C  C457  1  0.17635992  0.62662799  0.48466986  1
  H  H458  1  0.07199205  0.69071573  0.47679235  1
  C  C459  1  0.01599995  0.63746057  0.27164588  1
  C  C460  1  0.21912163  0.59397953  0.48883324  1
  H  H461  1  0.24424904  0.53826556  0.40322322  1
  H  H462  1  0.01315220  0.82714497  0.41576276  1
  C  C463  1  0.10444970  0.50470913  0.29122966  1
  N  N464  1  0.09398987  0.98604274  0.47545291  1
  H  H465  1  0.13340169  0.71270562  0.37504260  1
  C  C466  1  0.20781965  0.72614959  0.37466519  1
  N  N467  1  0.15166209  0.93215765  0.31157474  1
  H  H468  1  0.13346509  0.75930661  0.29384394  1
  Zn  Zn469  1  0.03381589  0.91659930  0.33859358  1
  C  C470  1  0.16064895  0.74315032  0.37213129  1
  N  N471  1  0.05342018  0.88717441  0.40560169  1
  C  C472  1  0.10884708  0.85148205  0.46736588  1
  C  C473  1  0.08599184  0.85192738  0.41263745  1
  C  C474  1  0.10149752  0.82321515  0.37060696  1
  C  C475  1  0.15003290  0.79753616  0.37708388  1
  C  C476  1  0.18782093  0.83495750  0.38088972  1
  C  C477  1  0.08089487  0.81603957  0.31932600  1
  H  H478  1  0.17690564  0.87467003  0.38048536  1
  N  N479  1  0.04055230  0.84548288  0.31224549  1
  Zn  Zn480  1  0.03824271  0.94051972  0.45766181  1
  N  N481  1  0.09427700  0.94923093  0.30424365  1
  H  H482  1  0.02158421  0.84789096  0.27890676  1
  C  C483  1  0.10115730  0.78106929  0.28453378  1
  H  H484  1  0.15969872  0.89345545  0.31087350  1
  H  H485  1  0.14864292  0.85095156  0.46519252  1
  H  H486  1  0.09575090  0.81660985  0.48903529  1
  H  H487  1  0.10656814  0.98818845  0.44077381  1
  C  C488  1  0.17559668  0.96787011  0.28248973  1
  C  C489  1  0.09328009  0.99370321  0.28020287  1
  H  H490  1  0.12967762  0.57017362  0.25266477  1
  H  H491  1  0.01664395  0.50508639  0.45555162  1
  N  N492  1  0.00686311  0.96834000  0.28612516  1
  H  H493  1  0.00489527  0.94166108  0.25749098  1
  C  C494  1  0.01074298  0.57897217  0.35097304  1
  C  C495  1  0.11725484  0.50677348  0.38347322  1
  H  H496  1  0.23753953  0.92371381  0.28540028  1
  C  C497  1  0.01402865  0.74806191  0.49388541  1
  C  C498  1  0.00358330  0.52269657  0.42029206  1
  C  C499  1  0.22424376  0.96077814  0.27673500  1
  O  O500  1  0.18945944  0.83827741  0.26496270  1
  C  C501  1  0.13333203  0.60470805  0.49598499  1
  H  H502  1  0.10021904  0.62670939  0.49553415  1
  C  C503  1  0.23597880  0.81809890  0.37776245  1
  H  H504  1  0.24796888  0.72284451  0.26312636  1
  C  C505  1  0.24334010  0.76462200  0.37574168  1
  H  H506  1  0.00475999  0.61441981  0.49103468  1
  H  H507  1  0.09549870  0.88649663  0.49164934  1
  H  H508  1  0.24868998  0.99161495  0.26225657  1
  H  H509  1  0.26884344  0.78781061  0.27267030  1
  H  H510  1  0.36417310  0.58898272  0.30449233  1
  Zn  Zn511  1  0.37399120  0.66911245  0.43989987  1
  H  H512  1  0.38638816  0.65323163  0.28422341  1
  C  C513  1  0.48711171  0.50625307  0.42334359  1
  H  H514  1  0.39628942  0.76303011  0.26538803  1
  H  H515  1  0.49299111  0.68591951  0.27192567  1
  C  C516  1  0.26732830  0.61561364  0.47590627  1
  N  N517  1  0.39310014  0.94154721  0.25161799  1
  C  C518  1  0.43505340  0.54614357  0.26645222  1
  O  O519  1  0.41983835  0.54462246  0.49237537  1
  H  H520  1  0.26729253  0.64400900  0.29318207  1
  C  C521  1  0.48443395  0.94055984  0.38560695  1
  C  C522  1  0.49602182  0.92721994  0.43694788  1
  H  H523  1  0.49265625  0.74742441  0.31203921  1
  H  H524  1  0.44660677  0.72222917  0.38983934  1
  H  H525  1  0.48719990  0.77888877  0.41149115  1
  C  C526  1  0.28290534  0.53834265  0.41508980  1
  C  C527  1  0.27553353  0.60904607  0.27117980  1
  H  H528  1  0.39750925  0.83130993  0.27977208  1
  C  C529  1  0.29789018  0.58794447  0.44409828  1
  N  N530  1  0.34186899  0.60302495  0.43599293  1
  C  C531  1  0.27756613  0.51391401  0.26779334  1
  C  C532  1  0.37053608  0.85112566  0.49854963  1
  H  H533  1  0.28856559  0.50568194  0.44035785  1
  H  H534  1  0.26673741  0.84626080  0.37548965  1
  C  C535  1  0.29577490  0.74670450  0.36424371  1
  H  H536  1  0.36674460  0.92572102  0.46165768  1
  N  N537  1  0.31766080  0.68969484  0.48533679  1
  H  H538  1  0.44337209  0.78768301  0.36278496  1
  C  C539  1  0.44213465  0.92529788  0.35748412  1
  H  H540  1  0.38248062  0.87245392  0.36283073  1
  C  C541  1  0.40168833  0.82978770  0.45981471  1
  C  C542  1  0.44990741  0.76641182  0.39782725  1
  C  C543  1  0.46689362  0.89159040  0.46047293  1
  C  C544  1  0.41181746  0.77783555  0.44014675  1
  O  O545  1  0.32742004  0.77842328  0.35555199  1
  C  C546  1  0.42278688  0.62518901  0.35008884  1
  H  H547  1  0.43335326  0.94244522  0.32024490  1
  H  H548  1  0.30418506  0.53200428  0.37893690  1
  C  C549  1  0.41503320  0.88650107  0.37999674  1
  C  C550  1  0.42890544  0.87059383  0.43042953  1
  H  H551  1  0.49533806  0.54305643  0.44891265  1
  C  C552  1  0.47331192  0.58167118  0.27817325  1
  H  H553  1  0.34698911  0.64974426  0.34058318  1
  N  N554  1  0.48849774  0.63360023  0.40707486  1
  O  O555  1  0.30285678  0.69857405  0.35874531  1
  C  C556  1  0.46868674  0.60834189  0.32938863  1
  N  N557  1  0.42687166  0.63804036  0.39623906  1
  C  C558  1  0.37684103  0.62898658  0.31759537  1
  N  N559  1  0.38812253  0.74059484  0.45976658  1
  C  C560  1  0.28061532  0.66671132  0.49956773  1
  H  H561  1  0.40870563  0.53656252  0.29650555  1
  C  C562  1  0.25924390  0.56181155  0.28778201  1
  H  H563  1  0.36602680  0.58568786  0.41027249  1
  H  H564  1  0.47225506  0.87893812  0.49956568  1
  C  C565  1  0.40674096  0.80113531  0.25161485  1
  C  C566  1  0.12273321  0.56398803  0.64024816  1
  C  C567  1  0.15145044  0.60401789  0.62382538  1
  H  H568  1  0.14464490  0.62381521  0.58740281  1
  C  C569  1  0.19163849  0.61785843  0.65644820  1
  H  H570  1  0.09451905  0.54956599  0.61716645  1
  C  C571  1  0.13162119  0.54231037  0.69122808  1
  H  H572  1  0.21014707  0.63829423  0.56512783  1
  C  C573  1  0.05131387  0.68378805  0.69304086  1
  H  H574  1  0.09055658  0.68041833  0.69598985  1
  O  O575  1  0.20995379  0.67524328  0.57698896  1
  C  C576  1  0.22305751  0.65732616  0.63457988  1
  C  C577  1  0.20370468  0.59308351  0.70464853  1
  O  O578  1  0.04547770  0.56266625  0.52446300  1
  C  C579  1  0.02677965  0.71209632  0.65501279  1
  C  C580  1  0.02358086  0.64807188  0.72018086  1
  C  C581  1  0.17083292  0.55862472  0.72189653  1
  H  H582  1  0.23560124  0.60111032  0.72438876  1
  C  C583  1  0.13352476  0.55017409  0.50884773  1
  H  H584  1  0.20496934  0.52829776  0.61436031  1
  C  C585  1  0.17346461  0.51977254  0.51914712  1
  C  C586  1  0.08734260  0.52588221  0.52223244  1
  H  H587  1  0.04913597  0.73588500  0.62919632  1
  H  H588  1  0.02507957  0.96336537  0.65150197  1
  H  H589  1  0.13074139  0.95348601  0.64187414  1
  C  C590  1  0.03910803  0.95939379  0.56857191  1
  H  H591  1  0.01943586  0.84489862  0.58568377  1
  C  C592  1  0.02877570  0.81269164  0.55920047  1
  O  O593  1  0.14488402  0.79202712  0.61228970  1
  C  C594  1  0.07455835  0.78876168  0.56534221  1
  H  H595  1  0.11462960  0.86380335  0.65107151  1
  C  C596  1  0.19446327  0.85422747  0.67334392  1
  C  C597  1  0.10600386  0.80877991  0.60483570  1
  O  O598  1  0.08682023  0.85235659  0.63560159  1
  H  H599  1  0.16895412  0.82049130  0.67171663  1
  C  C600  1  0.20819920  0.87844591  0.62779726  1
  C  C601  1  0.20338164  0.87728235  0.72160647  1
  H  H602  1  0.19853888  0.86467908  0.59012906  1
  N  N603  1  0.02444632  0.93002090  0.52876541  1
  C  C604  1  0.01539556  0.94694138  0.61410042  1
  H  H605  1  0.02298880  0.85011660  0.67627694  1
  C  C606  1  0.23157792  0.92424706  0.72640040  1
  H  H607  1  0.12764628  0.72796690  0.54638913  1
  C  C608  1  0.09190982  0.74518542  0.53709463  1
  C  C609  1  0.24166953  0.51130398  0.60763791  1
  H  H610  1  0.02303118  0.53577429  0.53382822  1
  C  C611  1  0.08098108  0.99682538  0.56372585  1
  H  H612  1  0.00929435  0.79097910  0.70900077  1
  H  H613  1  0.01936175  0.54193802  0.68752719  1
  C  C614  1  0.12698820  0.99461931  0.64647857  1
  C  C615  1  0.21821226  0.54073625  0.50721324  1
  C  C616  1  0.23382006  0.92399164  0.63369210  1
  H  H617  1  0.24764748  0.73712699  0.52936454  1
  O  O618  1  0.23776006  0.92048016  0.53809721  1
  C  C619  1  0.24775229  0.94607995  0.68154185  1
  H  H620  1  0.23664512  0.78291728  0.69204132  1
  C  C621  1  0.23510727  0.77239594  0.73509954  1
  C  C622  1  0.24594045  0.95153992  0.58450934  1
  H  H623  1  0.03587566  0.50787468  0.62836916  1
  C  C624  1  0.02591547  0.50267488  0.67046897  1
  H  H625  1  0.23439281  0.72993032  0.73693829  1
  C  C626  1  0.06129182  0.72573069  0.50066963  1
  O  O627  1  0.25675696  0.67314544  0.65662260  1
  H  H628  1  0.46662068  0.79931966  0.52648647  1
  O  O629  1  0.27184958  0.98761773  0.58192565  1
  C  C630  1  0.48083463  0.76088298  0.52019931  1
  H  H631  1  0.45560930  0.72938760  0.51829095  1
  H  H632  1  0.27065850  0.98062359  0.68698971  1
  C  C633  1  0.47309864  0.99401441  0.68820112  1
  H  H634  1  0.38836997  0.55130392  0.50692469  1
  H  H635  1  0.25021047  0.51834384  0.51182193  1
  H  H636  1  0.49738987  0.58602899  0.58644172  1
  H  H637  1  0.27642694  0.58319099  0.60572480  1
  C  C638  1  0.36246032  0.91127700  0.50171009  1
  C  C639  1  0.25558056  0.69590106  0.54026752  1
  Zn  Zn640  1  0.35260227  0.74438042  0.52415216  1
  C  C641  1  0.32380794  0.69191153  0.73746817  1
  O  O642  1  0.45171198  0.90577744  0.58351083  1
  H  H643  1  0.36507807  0.88392446  0.58893781  1
  H  H644  1  0.32930347  0.92275291  0.51984976  1
  H  H645  1  0.47623827  0.92324440  0.73421696  1
  C  C646  1  0.32834204  0.52130185  0.60106786  1
  N  N647  1  0.35146955  0.86235676  0.65460874  1
  C  C648  1  0.48576450  0.95938717  0.64814864  1
  H  H649  1  0.27190732  0.78050785  0.74977821  1
  H  H650  1  0.46130431  0.79830314  0.72717208  1
  C  C651  1  0.34261054  0.74379553  0.72870328  1
  C  C652  1  0.35260127  0.81937620  0.66565424  1
  N  N653  1  0.34819492  0.81947221  0.53072429  1
  H  H654  1  0.32772742  0.81824585  0.56255513  1
  N  N655  1  0.36457665  0.70283021  0.59459794  1
  H  H656  1  0.39161335  0.92866498  0.52407904  1
  C  C657  1  0.35989873  0.90527607  0.62427550  1
  H  H658  1  0.44505706  0.80290668  0.65913904  1
  H  H659  1  0.38030202  0.89803687  0.72347384  1
  C  C660  1  0.44627079  0.92986503  0.62261858  1
  H  H661  1  0.32302152  0.92302111  0.62445547  1
  H  H662  1  0.44019579  0.86067969  0.70410472  1
  O  O663  1  0.40096554  0.93963722  0.64227263  1
  C  C664  1  0.35413919  0.76419872  0.67530243  1
  C  C665  1  0.46195443  0.82481442  0.69303858  1
  O  O666  1  0.35060454  0.61321757  0.58115687  1
  C  C667  1  0.48486516  0.61682915  0.56154108  1
  C  C668  1  0.36652920  0.65264179  0.60832072  1
  H  H669  1  0.44771581  0.61323186  0.55182307  1
  O  O670  1  0.40682740  0.55707622  0.61985080  1
  H  H671  1  0.37919390  0.65102129  0.64998296  1
  C  C672  1  0.28172084  0.54268892  0.60437793  1
  C  C673  1  0.36785197  0.55989780  0.60529702  1
  C  C674  1  0.36020186  0.72522781  0.63779716  1
  H  H675  1  0.32065859  0.66426591  0.70564576  1
  H  H676  1  0.28015497  0.70227223  0.57095306  1
  H  H677  1  0.44677365  0.59242706  0.74445834  1
  H  H678  1  0.25257682  0.94421718  0.51412919  1
  H  H679  1  0.16683541  0.55690995  0.80508266  1
  H  H680  1  0.16538461  0.64455674  0.95263172  1
  C  C681  1  0.03792545  0.53617707  0.82121559  1
  H  H682  1  0.06630785  0.55571593  0.84536073  1
  C  C683  1  0.16642439  0.53110333  0.95672732  1
  C  C684  1  0.02419494  0.72321883  0.86024350  1
  C  C685  1  0.01265926  0.63930386  0.94334185  1
  H  H686  1  0.01758239  0.62170827  0.90406622  1
  C  C687  1  0.17885783  0.62704518  0.98877490  1
  C  C688  1  0.01360153  0.69471119  0.95142669  1
  C  C689  1  0.17669366  0.52926107  0.77455008  1
  C  C690  1  0.17675644  0.57162547  0.99912553  1
  O  O691  1  0.23430781  0.67215586  0.87030491  1
  C  C692  1  0.20670120  0.51970798  0.92804166  1
  O  O693  1  0.01304543  0.57364886  0.77912206  1
  H  H694  1  0.12636527  0.78147588  0.99151021  1
  N  N695  1  0.00804157  0.52142529  0.86401885  1
  H  H696  1  0.21156664  0.51407111  0.78667132  1
  C  C697  1  0.03617233  0.73122297  0.91389426  1
  H  H698  1  0.04973167  0.73558918  0.78675433  1
  N  N699  1  0.05406071  0.73715851  0.82501659  1
  C  C700  1  0.09864568  0.74935204  0.98487728  1
  C  C701  1  0.07254463  0.76236647  0.93459428  1
  H  H702  1  0.21098643  0.77301645  0.93254975  1
  N  N703  1  0.02597089  0.86182223  0.79332848  1
  Zn  Zn704  1  0.11593030  0.77544101  0.83327651  1
  N  N705  1  0.09389969  0.79695331  0.90239995  1
  N  N706  1  0.04955341  0.94611890  0.88063060  1
  N  N707  1  0.20283632  0.80514089  0.95359242  1
  Zn  Zn708  1  0.15111005  0.84380746  0.91537995  1
  N  N709  1  0.12809517  0.85428047  0.84075851  1
  N  N710  1  0.15442790  0.90850972  0.95292779  1
  Zn  Zn711  1  0.10265008  0.95405825  0.93022128  1
  C  C712  1  0.15258929  0.87898320  0.80367799  1
  Zn  Zn713  1  0.05956389  0.86524103  0.85887557  1
  N  N714  1  0.05212609  0.93705115  0.99089951  1
  C  C715  1  0.22210313  0.82158282  0.99549469  1
  C  C716  1  0.17896349  0.91497842  0.99369630  1
  C  C717  1  0.14570725  0.93767566  0.80427998  1
  Zn  Zn718  1  0.00355937  0.91862894  0.93267360  1
  C  C719  1  0.03522926  0.98314109  0.84778228  1
  H  H720  1  0.11039346  0.94956413  0.78872982  1
  H  H721  1  0.16445260  0.72405112  0.78366477  1
  H  H722  1  0.24822078  0.93809829  0.76256448  1
  N  N723  1  0.16503774  0.76369764  0.78607782  1
  H  H724  1  0.11781815  0.71177746  0.98460765  1
  H  H725  1  0.14807394  0.95124459  0.84692329  1
  O  O726  1  0.08442315  0.61373897  0.77313157  1
  C  C727  1  0.00119713  0.60686130  0.98420056  1
  H  H728  1  0.05418377  0.87098484  0.76888567  1
  N  N729  1  0.00216683  0.85176038  0.89965910  1
  C  C730  1  0.04324924  0.61013904  0.75902908  1
  H  H731  1  0.17264536  0.95574637  0.77754490  1
  C  C732  1  0.18347811  0.85269975  0.76967487  1
  C  C733  1  0.19415091  0.79695814  0.76534926  1
  H  H734  1  0.24640437  0.58482743  0.89693131  1
  C  C735  1  0.24974871  0.55419077  0.93003551  1
  C  C736  1  0.11908855  0.50939396  0.96352703  1
  C  C737  1  0.00059743  0.71514692  0.99994662  1
  H  H738  1  0.04064319  0.83586802  0.99809031  1
  O  O739  1  0.49391368  0.74602515  0.76188668  1
  C  C740  1  0.26838971  0.98410281  0.91888843  1
  H  H741  1  0.46097948  0.99600766  0.94756545  1
  C  C742  1  0.38374812  0.81405505  0.99541009  1
  C  C743  1  0.29685202  0.67872677  0.77907740  1
  C  C744  1  0.35957508  0.57859141  0.98209652  1
  C  C745  1  0.26132028  0.70641095  0.86374789  1
  C  C746  1  0.39050988  0.75815846  0.99709575  1
  O  O747  1  0.26586377  0.74465002  0.90758614  1
  H  H748  1  0.34252309  0.57816089  0.87711248  1
  H  H749  1  0.39181000  0.67963826  0.95590896  1
  C  C750  1  0.39196250  0.72313684  0.94884398  1
  H  H751  1  0.25144837  0.57478393  0.96821762  1
  H  H752  1  0.36113498  0.59917836  0.76662126  1
  H  H753  1  0.28181454  0.67827880  0.94524339  1
  H  H754  1  0.28434285  0.77356851  0.98153927  1
  H  H755  1  0.42638996  0.73497101  0.92742426  1
  H  H756  1  0.45603779  0.96370715  0.81666414  1
  C  C757  1  0.33309844  0.61382726  0.94844563  1
  C  C758  1  0.31897224  0.76573970  0.81641197  1
  C  C759  1  0.41514791  0.53289728  0.91956905  1
  C  C760  1  0.34630293  0.77809055  0.77231359  1
  O  O761  1  0.45746354  0.66704511  0.76814566  1
  C  C762  1  0.49765816  0.91356833  0.76724189  1
  H  H763  1  0.29836339  0.90172738  0.86541091  1
  C  C764  1  0.42577083  0.55901680  0.76001010  1
  C  C765  1  0.41639193  0.82547360  0.90284112  1
  C  C766  1  0.37863453  0.83392303  0.94067339  1
  H  H767  1  0.28460242  0.76862413  0.88738290  1
  O  O768  1  0.28124340  0.56647771  0.80787952  1
  C  C769  1  0.48800053  0.70179188  0.84795796  1
  C  C770  1  0.37827445  0.56125203  0.77013252  1
  H  H771  1  0.36424425  0.81557796  0.76674176  1
  C  C772  1  0.44648163  0.50885839  0.76668732  1
  H  H773  1  0.46340668  0.61555688  0.94446676  1
  O  O774  1  0.31968501  0.91601435  0.78110210  1
  C  C775  1  0.32829098  0.87674925  0.87900929  1
  H  H776  1  0.47632481  0.50339468  0.87459119  1
  C  C777  1  0.30084047  0.52572604  0.80377370  1
  H  H778  1  0.43713340  0.84264727  0.82126035  1
  H  H779  1  0.32204076  0.79429116  0.84673115  1
  C  C780  1  0.35225483  0.51801222  0.78701434  1
  H  H781  1  0.45281715  0.81231311  0.91294322  1
  C  C782  1  0.33162281  0.85350086  0.92650806  1
  O  O783  1  0.39560097  0.88607057  0.75406505  1
  C  C784  1  0.36672097  0.87065500  0.84296569  1
  H  H785  1  0.30224536  0.85028182  0.95446059  1
  C  C786  1  0.48643408  0.93589094  0.81221976  1
  C  C787  1  0.35414981  0.89289720  0.79259960  1
  C  C788  1  0.47700874  0.65140190  0.92588168  1
  H  H789  1  0.28171471  0.53242522  0.92227600  1
  C  C790  1  0.39261716  0.53425194  0.97008556  1
  H  H791  1  0.27535218  0.64279627  0.78362333  1
  H  H792  1  0.45048224  0.62795222  0.85458205  1
  N  N793  1  0.32794660  0.60854871  0.89762289  1
  C  C794  1  0.40966039  0.84188099  0.85189094  1
  C  C795  1  0.30529000  0.65670214  0.97411971  1
  C  C796  1  0.47666642  0.70144998  0.79128874  1
  H  H797  1  0.31231842  0.63156665  0.86925477  1
  C  C798  1  0.29352568  0.71766285  0.81841835  1
  H  H799  1  0.36259962  0.73026360  0.92093400  1
  H  H800  1  0.40477042  0.55985284  0.88787007  1
  C  C801  1  0.47111749  0.65706657  0.87355098  1
  C  C802  1  0.49869246  0.50202923  0.76426082  1
  C  C803  1  0.45672384  0.50416027  0.91183256  1
  H  H804  1  0.32900820  0.68445923  0.99499164  1
  C  C805  1  0.63260046  0.02205543  0.19826520  1
  C  C806  1  0.70265425  0.09502301  0.19255132  1
  C  C807  1  0.64263767  0.04650027  0.15013321  1
  C  C808  1  0.67918772  0.08162667  0.14697598  1
  H  H809  1  0.68971647  0.09790992  0.11093404  1
  O  O810  1  0.59210424  0.10829957  0.07668535  1
  H  H811  1  0.62169776  0.03602399  0.11534159  1
  C  C812  1  0.53835913  0.11437156  0.17677050  1
  H  H813  1  0.55155494  0.11358063  0.13395964  1
  H  H814  1  0.68207103  0.18424965  0.03479098  1
  C  C815  1  0.56924250  0.12647429  0.21648970  1
  C  C816  1  0.70465486  0.19811674  0.06588224  1
  C  C817  1  0.68368832  0.22057950  0.21183203  1
  H  H818  1  0.60620534  0.13540747  0.20417953  1
  H  H819  1  0.68292000  0.19898933  0.17448607  1
  N  N820  1  0.51585067  0.23542231  0.23049798  1
  C  C821  1  0.59459913  0.14970466  0.05108081  1
  H  H822  1  0.64111179  0.06472886  0.01179496  1
  C  C823  1  0.69217848  0.24483024  0.09169298  1
  H  H824  1  0.65961458  0.26732520  0.08244975  1
  C  C825  1  0.72198936  0.26497458  0.13017879  1
  N  N826  1  0.55810206  0.32279377  0.19254410  1
  C  C827  1  0.70104957  0.35956738  0.16622304  1
  C  C828  1  0.69975567  0.30337931  0.16866264  1
  H  H829  1  0.66456341  0.43184267  0.18019211  1
  N  N830  1  0.66889390  0.39267636  0.18101084  1
  C  C831  1  0.52458149  0.32906977  0.15843534  1
  C  C832  1  0.67331634  0.27919677  0.20864806  1
  Zn  Zn833  1  0.60776329  0.36881482  0.22011357  1
  H  H834  1  0.58758575  0.45594060  0.20404775  1
  C  C835  1  0.52546283  0.37637397  0.12171057  1
  O  O836  1  0.57933777  0.19121908  0.06743530  1
  H  H837  1  0.72148516  0.21777454  0.22557336  1
  H  H838  1  0.56077480  0.38270421  0.10771644  1
  N  N839  1  0.64298905  0.30146306  0.24042234  1
  C  C840  1  0.65317894  0.03724359  0.24741961  1
  C  C841  1  0.68683827  0.07493924  0.24287283  1
  H  H842  1  0.51553071  0.41346684  0.14106379  1
  H  H843  1  0.71655804  0.14211552  0.00051661  1
  N  N844  1  0.57682507  0.43609153  0.23712159  1
  C  C845  1  0.74677952  0.38455704  0.14498808  1
  O  O846  1  0.74208194  0.12551571  0.19167105  1
  H  H847  1  0.74254128  0.13239160  0.15212717  1
  H  H848  1  0.52231934  0.18108580  0.00318753  1
  O  O849  1  0.74135405  0.11476561  0.00297482  1
  H  H850  1  0.73339249  0.41753623  0.12055090  1
  H  H851  1  0.71693870  0.43729724  0.24791685  1
  H  H852  1  0.52229945  0.03251818  0.24574876  1
  Zn  Zn853  1  0.57236404  0.26939622  0.24737611  1
  H  H854  1  0.65938460  0.19762516  0.23741947  1
  C  C855  1  0.62309824  0.14525108  0.00101666  1
  C  C856  1  0.92661869  0.00932705  0.05997253  1
  H  H857  1  0.76370230  0.35617037  0.11784300  1
  H  H858  1  0.77013333  0.39551196  0.17801819  1
  C  C859  1  0.75349592  0.18246776  0.07275610  1
  H  H860  1  0.76200289  0.30899029  0.21998053  1
  C  C861  1  0.85289539  0.17950349  0.21182070  1
  H  H862  1  0.86088289  0.14276428  0.19287549  1
  C  C863  1  0.89136855  0.40395179  0.23018686  1
  H  H864  1  0.99077904  0.46051994  0.09291228  1
  C  C865  1  0.87697329  0.27115273  0.21374062  1
  H  H866  1  0.95269739  0.00326011  0.20677299  1
  O  O867  1  0.82124391  0.48364918  0.05517264  1
  O  O868  1  0.96730539  0.37243814  0.19330552  1
  H  H869  1  0.89597237  0.30444926  0.19776803  1
  O  O870  1  0.88321734  0.21968895  0.00453883  1
  H  H871  1  0.96167792  0.04865440  0.01337978  1
  O  O872  1  0.97154815  0.01969138  0.03477984  1
  H  H873  1  0.82164782  0.18952028  0.10988508  1
  H  H874  1  0.89983005  0.02765305  0.24283253  1
  C  C875  1  0.91988034  0.20510174  0.15601340  1
  O  O876  1  0.95193705  0.24360353  0.13863824  1
  O  O877  1  0.81074106  0.12090826  0.04751254  1
  C  C878  1  0.76751345  0.24155883  0.14295681  1
  O  O879  1  0.92120706  0.42539769  0.14693404  1
  H  H880  1  0.79138936  0.25979012  0.17525029  1
  H  H881  1  0.98354313  0.13817129  0.07989988  1
  C  C882  1  0.77143503  0.13768611  0.04074215  1
  O  O883  1  0.92289226  0.16204431  0.13985003  1
  H  H884  1  0.84615327  0.45681744  0.18184592  1
  H  H885  1  0.98149268  0.37526661  0.15768838  1
  H  H886  1  0.97192726  0.22083673  0.11512430  1
  C  C887  1  0.88361327  0.21977675  0.19518388  1
  C  C888  1  0.92631483  0.40423899  0.18618512  1
  C  C889  1  0.84980764  0.43403489  0.21734492  1
  O  O890  1  0.89200512  0.02974786  0.04437843  1
  C  C891  1  0.78435912  0.20443926  0.11008047  1
  C  C892  1  0.93506705  0.00880911  0.24490001  1
  C  C893  1  0.81281657  0.18632171  0.24202993  1
  H  H894  1  0.90047604  0.12923155  0.00108733  1
  C  C895  1  0.60055954  0.19214039  0.33076512  1
  C  C896  1  0.59444604  0.13920702  0.31134408  1
  C  C897  1  0.60196477  0.20292643  0.38729943  1
  C  C898  1  0.62775215  0.08539212  0.34479395  1
  N  N899  1  0.58875956  0.10093369  0.34960911  1
  O  O900  1  0.71578072  0.03854399  0.35217746  1
  C  C901  1  0.65852844  0.04802566  0.36979765  1
  H  H902  1  0.67123024  0.05876560  0.40991590  1
  C  C903  1  0.55664910  0.12836637  0.26860406  1
  N  N904  1  0.61055004  0.23308772  0.30318614  1
  H  H905  1  0.56757797  0.18641667  0.40500816  1
  H  H906  1  0.71925917  0.20215414  0.41029382  1
  H  H907  1  0.63495497  0.18591732  0.40846568  1
  C  C908  1  0.74214423  0.00932843  0.38725445  1
  H  H909  1  0.72166521  0.12474442  0.35239772  1
  O  O910  1  0.68895406  0.16370070  0.44723095  1
  C  C911  1  0.68538778  0.12208666  0.47002917  1
  H  H912  1  0.64143955  0.02011310  0.28137877  1
  N  N913  1  0.74566720  0.22074698  0.38776349  1
  H  H914  1  0.70363110  0.08923753  0.27791032  1
  C  C915  1  0.73738644  0.15078325  0.32201750  1
  H  H916  1  0.60331577  0.24473141  0.39366097  1
  C  C917  1  0.53637401  0.24885360  0.47559976  1
  H  H918  1  0.73965514  0.13531639  0.28208929  1
  H  H919  1  0.51886153  0.35169742  0.40085234  1
  C  C920  1  0.58286374  0.27065150  0.48121290  1
  H  H921  1  0.56769137  0.30706988  0.38682409  1
  Zn  Zn922  1  0.72374331  0.29808385  0.41214447  1
  C  C923  1  0.54568229  0.41796230  0.32098582  1
  Zn  Zn924  1  0.64595225  0.29981635  0.31908394  1
  N  N925  1  0.71553347  0.30713629  0.33690774  1
  N  N926  1  0.65546719  0.31399010  0.39605113  1
  C  C927  1  0.62638144  0.34363163  0.42474663  1
  N  N928  1  0.58827752  0.34123221  0.29512783  1
  C  C929  1  0.55530962  0.36408265  0.32516273  1
  C  C930  1  0.62037291  0.40276758  0.41649287  1
  C  C931  1  0.59438184  0.32535704  0.46259948  1
  H  H932  1  0.58225686  0.41218393  0.40883467  1
  C  C933  1  0.56431161  0.45349061  0.28349238  1
  N  N934  1  0.69825100  0.44081241  0.32481309  1
  H  H935  1  0.63006209  0.42543464  0.45320020  1
  H  H936  1  0.64362415  0.41451366  0.38318227  1
  C  C937  1  0.53612719  0.33041818  0.36756414  1
  C  C938  1  0.68656634  0.45271201  0.27294952  1
  H  H939  1  0.65674576  0.42257467  0.26671352  1
  H  H940  1  0.72807912  0.43648459  0.41446942  1
  C  C941  1  0.74708065  0.29103173  0.30161914  1
  C  C942  1  0.56508640  0.36629800  0.48083812  1
  H  H943  1  0.64418138  0.00604846  0.37088225  1
  H  H944  1  0.60584682  0.11622651  0.46411155  1
  H  H945  1  0.50653118  0.27420675  0.46094837  1
  C  C946  1  0.74124329  0.43966522  0.32257881  1
  C  C947  1  0.50878233  0.11980141  0.28298856  1
  N  N948  1  0.71293906  0.31834697  0.48617475  1
  H  H949  1  0.67609238  0.32177766  0.48228584  1
  C  C950  1  0.52152258  0.20064820  0.49103146  1
  C  C951  1  0.63971979  0.09939720  0.48065803  1
  H  H952  1  0.72856611  0.35833750  0.25367300  1
  C  C953  1  0.51985060  0.48521864  0.38830531  1
  C  C954  1  0.51109719  0.43764612  0.36083687  1
  C  C955  1  0.72569201  0.09514892  0.49147141  1
  H  H956  1  0.50395420  0.42590882  0.48131248  1
  C  C957  1  0.53956727  0.41837577  0.49676446  1
  H  H958  1  0.56879005  0.02661060  0.29544326  1
  H  H959  1  0.50969662  0.30055790  0.35180844  1
  C  C960  1  0.54065396  0.00387836  0.27182964  1
  H  H961  1  0.51677983  0.20838047  0.25922475  1
  C  C962  1  0.94270412  0.00071652  0.34279815  1
  C  C963  1  0.75022254  0.19945101  0.33315516  1
  H  H964  1  0.91627981  0.02783554  0.44936666  1
  H  H965  1  0.76032620  0.11570021  0.48718220  1
  C  C966  1  0.95618094  0.02109151  0.44288145  1
  C  C967  1  0.85878871  0.03534268  0.32052048  1
  C  C968  1  0.79446357  0.00749495  0.37463396  1
  H  H969  1  0.88931800  0.34758016  0.48762007  1
  N  N970  1  0.76074395  0.44216667  0.42930395  1
  H  H971  1  0.76577999  0.42806779  0.46647015  1
  C  C972  1  0.89103767  0.00381544  0.35073053  1
  H  H973  1  0.78475888  0.06264315  0.31049205  1
  C  C974  1  0.93044227  0.46769582  0.42492737  1
  H  H975  1  0.87045605  0.36912716  0.35458758  1
  H  H976  1  0.85160359  0.06722271  0.48329816  1
  C  C977  1  0.84352769  0.44613539  0.42604759  1
  C  C978  1  0.78701342  0.43306357  0.34155404  1
  C  C979  1  0.86790682  0.38735135  0.31585779  1
  H  H980  1  0.84871851  0.41231886  0.45490738  1
  H  H981  1  0.79321732  0.34922120  0.26512832  1
  C  C982  1  0.90028517  0.37928899  0.27658441  1
  C  C983  1  0.81647209  0.43822713  0.25543201  1
  C  C984  1  0.79833031  0.44104886  0.39608281  1
  H  H985  1  0.83574231  0.47862441  0.45339007  1
  H  H986  1  0.80842046  0.23226847  0.48411533  1
  C  C987  1  0.81081427  0.03733465  0.33081421  1
  H  H988  1  0.88135482  0.27887091  0.48771155  1
  H  H989  1  0.97312134  0.06044888  0.44216079  1
  O  O990  1  0.88826486  0.45246085  0.39896615  1
  C  C991  1  0.82605890  0.41650537  0.30405620  1
  C  C992  1  0.81593857  0.32488718  0.46548932  1
  C  C993  1  0.84771029  0.15673720  0.42656030  1
  H  H994  1  0.80470320  0.31329797  0.38587480  1
  O  O995  1  0.93456595  0.45186807  0.46769290  1
  H  H996  1  0.93499926  0.36024676  0.28215597  1
  H  H997  1  0.85559922  0.20177309  0.36917160  1
  C  C998  1  0.75857252  0.32942519  0.25870656  1
  N  N999  1  0.79220068  0.32137856  0.42236449  1
  C  C1000  1  0.87070551  0.31678424  0.46600888  1
  C  C1001  1  0.82708656  0.14965459  0.47841568  1
  O  O1002  1  0.86734511  0.12496542  0.40202827  1
  C  C1003  1  0.77031685  0.24286766  0.30139966  1
  C  C1004  1  0.97869094  0.20282168  0.46130875  1
  H  H1005  1  0.78848572  0.15616787  0.25566427  1
  O  O1006  1  0.84127504  0.20881877  0.40177949  1
  C  C1007  1  0.80977077  0.23735980  0.26473155  1
  H  H1008  1  0.77716088  0.21834719  0.40868553  1
  H  H1009  1  0.87320641  0.06005099  0.28840916  1
  O  O1010  1  0.99501820  0.22600995  0.43257023  1
  H  H1011  1  0.88678279  0.31468469  0.42717536  1
  C  C1012  1  0.84204241  0.27935463  0.25166549  1
  H  H1013  1  0.83989155  0.31937374  0.27127633  1
  H  H1014  1  0.78208921  0.45837693  0.25221307  1
  C  C1015  1  0.56146163  0.16764859  0.66688123  1
  H  H1016  1  0.62813363  0.04018678  0.62924726  1
  C  C1017  1  0.65743672  0.04909515  0.65389481  1
  H  H1018  1  0.65823993  0.09317949  0.65467575  1
  C  C1019  1  0.69012148  0.18129872  0.60472695  1
  N  N1020  1  0.70695553  0.14992350  0.68430031  1
  H  H1021  1  0.68449123  0.15440000  0.57057991  1
  C  C1022  1  0.67787914  0.02436125  0.52218750  1
  H  H1023  1  0.65349657  0.18877583  0.62260473  1
  C  C1024  1  0.72507313  0.14988701  0.63852429  1
  C  C1025  1  0.55260763  0.22088730  0.65795301  1
  C  C1026  1  0.64804967  0.03527527  0.70908616  1
  C  C1027  1  0.52402661  0.12550665  0.65242369  1
  N  N1028  1  0.60104380  0.15116913  0.68534640  1
  Zn  Zn1029  1  0.65869802  0.19390355  0.71319479  1
  C  C1030  1  0.60089381  0.18944291  0.52794040  1
  H  H1031  1  0.61007140  0.11559429  0.69700153  1
  H  H1032  1  0.70729319  0.22008308  0.58908260  1
  H  H1033  1  0.59948120  0.04031117  0.51003114  1
  H  H1034  1  0.62739637  0.16690869  0.54932851  1
  C  C1035  1  0.55287529  0.16629035  0.51844359  1
  H  H1036  1  0.72252755  0.05290421  0.60656908  1
  O  O1037  1  0.54335388  0.12188211  0.53073674  1
  C  C1038  1  0.63636133  0.05358805  0.50507478  1
  C  C1039  1  0.72471842  0.04785505  0.51709960  1
  C  C1040  1  0.60345380  0.02414555  0.73253965  1
  C  C1041  1  0.61279682  0.23830053  0.51047472  1
  H  H1042  1  0.52458886  0.12259622  0.60894022  1
  C  C1043  1  0.70744314  0.02341152  0.63179990  1
  H  H1044  1  0.64886096  0.25373050  0.52295227  1
  C  C1045  1  0.50349943  0.24314072  0.64536478  1
  N  N1046  1  0.62547802  0.25817833  0.69602820  1
  H  H1047  1  0.68703680  0.47527446  0.61357373  1
  C  C1048  1  0.58837303  0.26138091  0.66575650  1
  H  H1049  1  0.54573172  0.30673038  0.61861172  1
  C  C1050  1  0.57323293  0.31603379  0.65043354  1
  O  O1051  1  0.62597458  0.41978708  0.56325518  1
  C  C1052  1  0.60315510  0.46417297  0.55548736  1
  C  C1053  1  0.72396643  0.35950837  0.57110120  1
  H  H1054  1  0.60386449  0.33505391  0.62906753  1
  H  H1055  1  0.55862124  0.34278622  0.67918054  1
  H  H1056  1  0.60437543  0.39345159  0.54527722  1
  O  O1057  1  0.56562786  0.46672018  0.52490237  1
  C  C1058  1  0.65943195  0.43505061  0.70551682  1
  C  C1059  1  0.71035062  0.43127265  0.69797022  1
  N  N1060  1  0.72098735  0.34122772  0.69143810  1
  N  N1061  1  0.53933575  0.37211864  0.51827924  1
  C  C1062  1  0.62683832  0.48339351  0.70827355  1
  C  C1063  1  0.74160451  0.38757501  0.69475350  1
  C  C1064  1  0.74273793  0.33267247  0.52239504  1
  H  H1065  1  0.68580178  0.36500120  0.56856001  1
  H  H1066  1  0.53280079  0.08558145  0.66791363  1
  H  H1067  1  0.73442330  0.33525074  0.60448528  1
  Zn  Zn1068  1  0.65987551  0.31930214  0.72026774  1
  N  N1069  1  0.63702708  0.39200032  0.71636637  1
  C  C1070  1  0.51130937  0.01695159  0.71300852  1
  H  H1071  1  0.73960904  0.39841983  0.58012584  1
  C  C1072  1  0.74169612  0.47925916  0.69363333  1
  C  C1073  1  0.56070412  0.00614867  0.70293461  1
  H  H1074  1  0.73931541  0.30846143  0.69876331  1
  H  H1075  1  0.52405423  0.36861180  0.73222542  1
  H  H1076  1  0.60767312  0.49267881  0.67031877  1
  H  H1077  1  0.73134867  0.01726095  0.66297377  1
  C  C1078  1  0.50790628  0.40656976  0.72232688  1
  Zn  Zn1079  1  0.72402928  0.10564107  0.74281503  1
  N  N1080  1  0.68548960  0.04103145  0.74089979  1
  H  H1081  1  0.60037315  0.38471983  0.72002946  1
  H  H1082  1  0.52421164  0.42247756  0.68480626  1
  H  H1083  1  0.59337006  0.47990429  0.73327509  1
  N  N1084  1  0.69153426  0.25391210  0.74942822  1
  H  H1085  1  0.50522562  0.04458527  0.74309107  1
  H  H1086  1  0.81148128  0.42744887  0.70678252  1
  H  H1087  1  0.76033659  0.02846054  0.52857520  1
  H  H1088  1  0.93733372  0.37407363  0.74800592  1
  H  H1089  1  0.88560266  0.17637676  0.69535027  1
  C  C1090  1  0.80060700  0.09751898  0.66060996  1
  H  H1091  1  0.99258035  0.47801364  0.67112770  1
  H  H1092  1  0.82227747  0.25941868  0.60302527  1
  O  O1093  1  0.91078272  0.35841015  0.72813703  1
  C  C1094  1  0.84148511  0.38900150  0.56051281  1
  H  H1095  1  0.86720593  0.10813195  0.61439835  1
  H  H1096  1  0.77207997  0.44467732  0.62235094  1
  C  C1097  1  0.90947448  0.39243645  0.68565494  1
  C  C1098  1  0.95047674  0.22036384  0.69818693  1
  C  C1099  1  0.85275611  0.08427981  0.64656785  1
  H  H1100  1  0.81477594  0.37678387  0.66334642  1
  O  O1101  1  0.93166921  0.43185923  0.68497889  1
  H  H1102  1  0.93973982  0.31070170  0.66375920  1
  H  H1103  1  0.86015873  0.04262674  0.63310407  1
  H  H1104  1  0.95884051  0.28504250  0.60406741  1
  O  O1105  1  0.89215666  0.08198179  0.68749050  1
  C  C1106  1  0.77228603  0.47611879  0.64971603  1
  H  H1107  1  0.76971092  0.21948526  0.56893886  1
  H  H1108  1  0.87522992  0.29762130  0.67480935  1
  H  H1109  1  0.83103836  0.41675758  0.52921689  1
  C  C1110  1  0.80823873  0.19381549  0.50383783  1
  C  C1111  1  0.82545354  0.33576428  0.56125501  1
  C  C1112  1  0.83696328  0.30062386  0.60220277  1
  C  C1113  1  0.87169864  0.40845173  0.59968566  1
  C  C1114  1  0.79370651  0.32731037  0.51479246  1
  C  C1115  1  0.88235275  0.37443370  0.64027136  1
  C  C1116  1  0.79661776  0.38919715  0.69977378  1
  C  C1117  1  0.96652117  0.31538459  0.63208019  1
  H  H1118  1  0.80933622  0.36517101  0.73069794  1
  H  H1119  1  0.88573901  0.44791057  0.59685550  1
  C  C1120  1  0.86596818  0.32211440  0.64115664  1
  C  C1121  1  0.93740850  0.07074294  0.66974860  1
  O  O1122  1  0.94339689  0.06336406  0.62461007  1
  C  C1123  1  0.77034945  0.12750631  0.62677918  1
  C  C1124  1  0.98320901  0.24953008  0.72970858  1
  C  C1125  1  0.91047548  0.19749384  0.72157109  1
  N  N1126  1  0.78151610  0.08206946  0.70453834  1
  H  H1127  1  0.96199525  0.35660964  0.61703987  1
  H  H1128  1  0.80197098  0.06253893  0.72992253  1
  C  C1129  1  0.81471805  0.09308805  0.55044124  1
  H  H1130  1  0.82062573  0.05496700  0.57170893  1
  C  C1131  1  0.97769483  0.06770954  0.70851229  1
  C  C1132  1  0.78645158  0.18580936  0.55146839  1
  C  C1133  1  0.79033641  0.13618274  0.57413067  1
  H  H1134  1  0.95259302  0.22254938  0.65522701  1
  C  C1135  1  0.83522264  0.10014640  0.50326380  1
  C  C1136  1  0.60613820  0.15492220  0.82607695  1
  H  H1137  1  0.59187042  0.12650319  0.85545504  1
  H  H1138  1  0.58597908  0.15015531  0.78762160  1
  H  H1139  1  0.59945169  0.19527038  0.84082394  1
  C  C1140  1  0.65941735  0.14426362  0.81837056  1
  H  H1141  1  0.67424616  0.03881986  0.77753424  1
  C  C1142  1  0.66586452  0.09585861  0.93748087  1
  C  C1143  1  0.66610143  0.14345013  0.91054797  1
  C  C1144  1  0.65081781  0.19401448  0.92758211  1
  C  C1145  1  0.69170613  0.13838424  0.85975397  1
  N  N1146  1  0.67433883  0.14693421  0.77070006  1
  C  C1147  1  0.59393862  0.02881459  0.78785988  1
  H  H1148  1  0.68305064  0.05924730  0.91918877  1
  N  N1149  1  0.58784466  0.03970720  0.82947756  1
  H  H1150  1  0.65382932  0.23041882  0.90251712  1
  O  O1151  1  0.53180706  0.22929494  0.79635242  1
  C  C1152  1  0.74020974  0.12130576  0.85589161  1
  H  H1153  1  0.51836705  0.22558404  0.88400837  1
  C  C1154  1  0.62639940  0.19384895  0.97457359  1
  C  C1155  1  0.56258312  0.03940974  0.87824774  1
  C  C1156  1  0.72671404  0.25655027  0.78248036  1
  C  C1157  1  0.52878437  0.27323467  0.81327128  1
  H  H1158  1  0.72386391  0.23650532  0.92322441  1
  H  H1159  1  0.62143901  0.29811142  0.81227702  1
  H  H1160  1  0.62621088  0.36466794  0.81173127  1
  O  O1161  1  0.56495769  0.29942154  0.82449775  1
  N  N1162  1  0.64744200  0.33043852  0.81041352  1
  C  C1163  1  0.69290741  0.33233423  0.83646507  1
  H  H1164  1  0.67805115  0.40824780  0.86577844  1
  C  C1165  1  0.69675742  0.37220414  0.87715914  1
  H  H1166  1  0.68278006  0.36008224  0.91665402  1
  C  C1167  1  0.72603531  0.29342757  0.82563765  1
  O  O1168  1  0.54797974  0.45208163  0.91068257  1
  H  H1169  1  0.56408495  0.46730627  0.81848512  1
  C  C1170  1  0.52373257  0.44885693  0.94872164  1
  N  N1171  1  0.55347467  0.43722644  0.79598375  1
  H  H1172  1  0.51416993  0.36373705  0.84878260  1
  H  H1173  1  0.61455023  0.22995106  0.99251683  1
  H  H1174  1  0.55995656  0.39222631  0.97240678  1
  H  H1175  1  0.58302460  0.04969743  0.91646242  1
  C  C1176  1  0.52035084  0.44712634  0.76425283  1
  H  H1177  1  0.53198570  0.06199203  0.87079626  1
  C  C1178  1  0.64219853  0.09767039  0.98455891  1
  O  O1179  1  0.53748537  0.41382994  0.99020391  1
  C  C1180  1  0.74746733  0.00513403  0.95541950  1
  N  N1181  1  0.50166852  0.16293366  0.97512878  1
  O  O1182  1  0.74550919  0.39443792  0.89949010  1
  H  H1183  1  0.72569362  0.01092759  0.99140576  1
  C  C1184  1  0.77813142  0.12453340  0.89849253  1
  O  O1185  1  0.75426419  0.44434325  0.83108610  1
  H  H1186  1  0.90383774  0.15470603  0.93184174  1
  C  C1187  1  0.76747494  0.21549685  0.78358963  1
  H  H1188  1  0.94999418  0.22799072  0.96233712  1
  C  C1189  1  0.82446484  0.00678315  0.91871256  1
  C  C1190  1  0.98277277  0.24476261  0.78456179  1
  H  H1191  1  0.80292460  0.23239001  0.77641933  1
  C  C1192  1  0.90093317  0.40985393  0.91437825  1
  C  C1193  1  0.82390620  0.43405953  0.87835482  1
  O  O1194  1  0.93146459  0.25140778  0.94037262  1
  C  C1195  1  0.97273597  0.43067026  0.85579365  1
  N  N1196  1  0.93475332  0.08841606  0.94442836  1
  C  C1197  1  0.96674881  0.08898853  0.75789313  1
  C  C1198  1  0.77290625  0.42553762  0.86705000  1
  C  C1199  1  0.84205327  0.25699099  0.93145060  1
  C  C1200  1  0.92168227  0.44120278  0.87368560  1
  C  C1201  1  0.98139134  0.38397636  0.82837897  1
  C  C1202  1  0.85141412  0.40336318  0.91242057  1
  C  C1203  1  0.79472148  0.24722270  0.95090695  1
  C  C1204  1  0.88375780  0.24254185  0.96474694  1
  H  H1205  1  0.97959032  0.27227430  0.90893797  1
  H  H1206  1  0.77187315  0.19899431  0.82362618  1
  C  C1207  1  0.75886885  0.25249064  0.91438883  1
  H  H1208  1  0.88598064  0.28522410  0.86381812  1
  H  H1209  1  0.93963212  0.31266799  0.80114859  1
  C  C1210  1  0.94483344  0.34166062  0.83545165  1
  C  C1211  1  0.76448053  0.27817920  0.86508684  1
  C  C1212  1  0.99902711  0.47787886  0.85108019  1
  H  H1213  1  0.82138405  0.31807699  0.81437824  1
  C  C1214  1  0.84588139  0.46750197  0.84206688  1
  H  H1215  1  0.99717606  0.10218086  0.83718498  1
  H  H1216  1  0.82202376  0.48491591  0.81324079  1
  H  H1217  1  0.91379612  0.49911052  0.81220342  1
  H  H1218  1  0.92066281  0.39375079  0.94612696  1
  H  H1219  1  0.76707640  0.10088855  0.93254480  1
  C  C1220  1  0.89506267  0.47240484  0.83978622  1
  H  H1221  1  0.90738741  0.35982873  0.84093475  1
  C  C1222  1  0.85015789  0.27893442  0.88108341  1
  H  H1223  1  0.95152955  0.32045286  0.87220578  1
  N  N1224  1  0.75659430  0.10490504  0.81324372  1
  H  H1225  1  0.81483952  0.11216407  0.88699739  1
  C  C1226  1  0.81136014  0.29560929  0.85025697  1
  C  C1227  1  0.94410944  0.21844296  0.80678417  1
  C  C1228  1  0.87743760  0.01392670  0.92340453  1
  H  H1229  1  0.93253939  0.10722718  0.76768097  1
  O  O1230  1  0.83861043  0.14079165  0.78054585  1
  C  C1231  1  0.89557633  0.12068465  0.95993358  1
  H  H1232  1  0.79342495  0.10238563  0.80503207  1
  H  H1233  1  0.78191136  0.16523165  0.91196708  1
  C  C1234  1  0.90114136  0.06122318  0.94083580  1
  H  H1235  1  0.94261990  0.21509010  0.84865329  1
  H  H1236  1  0.83173165  0.37712036  0.93986692  1
  C  C1237  1  0.87302010  0.16156742  0.80504955  1
  C  C1238  1  0.91123256  0.19354367  0.77594898  1
  C  C1239  1  0.79362095  0.02026707  0.96086981  1
  O  O1240  1  0.87542412  0.16070759  0.85206993  1
  H  H1241  1  0.78859955  0.23123992  0.98916860  1
  H  H1242  1  0.80627141  0.03848307  0.99883122  1
  H  H1243  1  0.76081873  0.18564483  0.75147802  1
  H  H1244  1  0.61302483  0.56711971  0.13958907  1
  C  C1245  1  0.58793400  0.64059827  0.17261132  1
  C  C1246  1  0.61437260  0.59523681  0.17220731  1
  H  H1247  1  0.56547946  0.65471245  0.14002435  1
  H  H1248  1  0.72045623  0.64317434  0.12510850  1
  C  C1249  1  0.72519494  0.65389760  0.16541295  1
  C  C1250  1  0.59561174  0.67268041  0.21747668  1
  H  H1251  1  0.69880241  0.63828555  0.19193889  1
  C  C1252  1  0.52175239  0.71840888  0.03726315  1
  C  C1253  1  0.57964877  0.72805778  0.21558221  1
  C  C1254  1  0.62962578  0.72539358  0.13377383  1
  H  H1255  1  0.53653978  0.57637069  0.16510814  1
  C  C1256  1  0.64173797  0.57906548  0.21632690  1
  H  H1257  1  0.65440056  0.69990570  0.15349031  1
  H  H1258  1  0.74041000  0.67543586  0.08318653  1
  H  H1259  1  0.74149029  0.54754320  0.17207391  1
  H  H1260  1  0.65198750  0.75245734  0.10960295  1
  C  C1261  1  0.59410268  0.75542299  0.16985843  1
  H  H1262  1  0.61032523  0.69944272  0.10533026  1
  O  O1263  1  0.54737954  0.97935948  0.00912153  1
  H  H1264  1  0.52539638  0.77426979  0.10587564  1
  C  C1265  1  0.53906449  0.75860320  0.06962939  1
  C  C1266  1  0.65128220  0.94632767  0.12379840  1
  N  N1267  1  0.59038978  0.80405167  0.16129739  1
  H  H1268  1  0.65839719  0.91745701  0.09359170  1
  H  H1269  1  0.66779641  0.83547403  0.15341506  1
  N  N1270  1  0.67405652  0.83167422  0.11519445  1
  C  C1271  1  0.71460669  0.83948247  0.09133465  1
  Zn  Zn1272  1  0.60697011  0.84262740  0.09474990  1
  N  N1273  1  0.57429533  0.78977977  0.05331141  1
  N  N1274  1  0.58670003  0.89614241  0.14628940  1
  C  C1275  1  0.61073433  0.94032381  0.15313236  1
  Zn  Zn1276  1  0.55633875  0.85528334  0.20593932  1
  C  C1277  1  0.60208839  0.97504101  0.19879511  1
  C  C1278  1  0.71513231  0.84601386  0.03612066  1
  C  C1279  1  0.56585938  0.96585337  0.23703490  1
  N  N1280  1  0.54192733  0.92129443  0.23841860  1
  H  H1281  1  0.72230466  0.78656937  0.22632567  1
  N  N1282  1  0.63530306  0.87146355  0.02605944  1
  H  H1283  1  0.59499453  0.79072484  0.02059867  1
  N  N1284  1  0.53037397  0.79715283  0.24891745  1
  C  C1285  1  0.51004427  0.59360780  0.24218918  1
  C  C1286  1  0.53328933  0.93700800  0.01428045  1
  C  C1287  1  0.69981485  0.86721992  0.24224241  1
  C  C1288  1  0.73175164  0.88857473  0.20181268  1
  C  C1289  1  0.51494463  0.57999916  0.00923493  1
  C  C1290  1  0.66280132  0.52749716  0.21692425  1
  C  C1291  1  0.54292881  0.74791818  0.24934875  1
  C  C1292  1  0.50748183  0.57067502  0.19417619  1
  H  H1293  1  0.50093735  0.54028404  0.01825534  1
  H  H1294  1  0.50637741  0.56242670  0.10178720  1
  H  H1295  1  0.67892121  0.97628761  0.13392531  1
  O  O1296  1  0.51054001  0.52311781  0.09805996  1
  O  O1297  1  0.73248683  0.93110023  0.18568452  1
  C  C1298  1  0.50476149  0.92013204  0.05881143  1
  C  C1299  1  0.67724589  0.86327822  0.00467081  1
  H  H1300  1  0.50829217  0.99448641  0.09745364  1
  O  O1301  1  0.66022943  0.50122289  0.17878116  1
  O  O1302  1  0.74694039  0.51220762  0.08726137  1
  H  H1303  1  0.53655328  0.51448928  0.24049448  1
  H  H1304  1  0.60601440  0.88767106  0.00969816  1
  C  C1305  1  0.50528359  0.67981030  0.00848504  1
  C  C1306  1  0.78851096  0.51110435  0.09497930  1
  H  H1307  1  0.88888806  0.51562768  0.11212660  1
  H  H1308  1  0.99973214  0.75907365  0.00495101  1
  H  H1309  1  0.78071497  0.60091442  0.24267010  1
  C  C1310  1  0.87145575  0.78182266  0.17049841  1
  N  N1311  1  0.98653100  0.76588699  0.22265769  1
  C  C1312  1  0.97768758  0.80925486  0.19889650  1
  H  H1313  1  0.85840659  0.89103363  0.18256471  1
  C  C1314  1  0.85938872  0.83174856  0.03291931  1
  C  C1315  1  0.92859960  0.96930047  0.10124973  1
  H  H1316  1  0.75811011  0.61364914  0.01284060  1
  H  H1317  1  0.90587094  0.75926910  0.02809964  1
  H  H1318  1  0.85214681  0.74596363  0.02750611  1
  C  C1319  1  0.98640911  0.59197765  0.07704180  1
  H  H1320  1  0.86666880  0.81798815  0.14673457  1
  H  H1321  1  0.97114817  0.82480587  0.11330219  1
  C  C1322  1  0.76085697  0.84499680  0.12306192  1
  N  N1323  1  0.81050467  0.74793018  0.23132925  1
  C  C1324  1  0.84213223  0.88214367  0.02624448  1
  C  C1325  1  0.79354185  0.88605882  0.01666739  1
  H  H1326  1  0.77701641  0.92382688  0.01577852  1
  C  C1327  1  0.94567881  0.84882116  0.21769386  1
  H  H1328  1  0.77406401  0.88565681  0.11486056  1
  H  H1329  1  0.76369017  0.75585920  0.00006194  1
  C  C1330  1  0.76605532  0.83942728  0.01633973  1
  C  C1331  1  0.97910474  0.91322154  0.15473749  1
  H  H1332  1  0.89631249  0.75661290  0.14913700  1
  H  H1333  1  0.89071651  0.79310415  0.20941442  1
  H  H1334  1  0.78916120  0.81504967  0.11329547  1
  H  H1335  1  0.85398049  0.96243414  0.11541301  1
  C  C1336  1  0.93835277  0.89265386  0.17962544  1
  O  O1337  1  0.93171922  0.77840535  0.04633835  1
  O  O1338  1  0.93610697  0.86540810  0.04498629  1
  C  C1339  1  0.88893061  0.94763520  0.12840764  1
  C  C1340  1  0.91145375  0.82853003  0.04456477  1
  C  C1341  1  0.89041151  0.90830978  0.16609884  1
  C  C1342  1  0.75964101  0.68910391  0.18031858  1
  O  O1343  1  0.97087561  0.60297401  0.11723509  1
  O  O1344  1  0.76367048  0.84541335  0.17679433  1
  C  C1345  1  0.86566168  0.53196289  0.14235728  1
  N  N1346  1  0.76753231  0.70281707  0.23062963  1
  H  H1347  1  0.92985463  0.70570288  0.20040279  1
  C  C1348  1  0.80180445  0.57816751  0.21547836  1
  H  H1349  1  0.91150628  0.63678463  0.03714941  1
  C  C1350  1  0.78119693  0.54990668  0.17563773  1
  H  H1351  1  0.97626867  0.51462658  0.13837302  1
  C  C1352  1  0.87436975  0.64703386  0.05065763  1
  H  H1353  1  0.89338266  0.70766012  0.10328331  1
  C  C1354  1  0.86404474  0.68377290  0.08802800  1
  C  C1355  1  0.83563580  0.62309210  0.02507048  1
  C  C1356  1  0.88574912  0.55798997  0.18399400  1
  H  H1357  1  0.94975628  0.63909464  0.19786490  1
  C  C1358  1  0.81445402  0.69126777  0.10479091  1
  C  C1359  1  0.91719389  0.66379546  0.20159778  1
  C  C1360  1  0.80030213  0.71436539  0.15329080  1
  H  H1361  1  0.92391078  0.56344625  0.18938247  1
  C  C1362  1  0.78673419  0.63330453  0.03424691  1
  H  H1363  1  0.89475555  0.64880716  0.16849034  1
  C  C1364  1  0.77879947  0.66775525  0.07257653  1
  C  C1365  1  0.81421090  0.53300844  0.13861187  1
  C  C1366  1  0.85343558  0.57759761  0.22225573  1
  C  C1367  1  0.97449467  0.95145623  0.11575698  1
  H  H1368  1  0.86307977  0.91768147  0.02457395  1
  H  H1369  1  0.97826698  0.69387908  0.07626010  1
  C  C1370  1  0.78652807  0.78901116  0.01253196  1
  C  C1371  1  0.82392467  0.75350565  0.18385860  1
  C  C1372  1  0.83362839  0.78474503  0.02566415  1
  C  C1373  1  0.99213519  0.62706531  0.03354209  1
  C  C1374  1  0.98843420  0.68200955  0.03833033  1
  C  C1375  1  0.98704317  0.50263593  0.09989649  1
  O  O1376  1  0.99483206  0.53229743  0.06566834  1
  H  H1377  1  0.99893393  0.85725778  0.04733403  1
  C  C1378  1  0.99827937  0.81007697  0.14210000  1
  H  H1379  1  0.80791861  0.50310848  0.02454866  1
  C  C1380  1  0.66369225  0.66570720  0.39937413  1
  C  C1381  1  0.65076569  0.63039384  0.43819980  1
  H  H1382  1  0.67235754  0.59522780  0.43734258  1
  C  C1383  1  0.70633495  0.65102715  0.36633153  1
  C  C1384  1  0.63849130  0.71266261  0.39580328  1
  H  H1385  1  0.63285544  0.68379223  0.29286835  1
  H  H1386  1  0.66719127  0.59508505  0.29351696  1
  H  H1387  1  0.57822032  0.62104768  0.33025615  1
  O  O1388  1  0.71778292  0.67586696  0.32846632  1
  H  H1389  1  0.57988040  0.63783647  0.39302513  1
  C  C1390  1  0.56142836  0.61057446  0.36649530  1
  C  C1391  1  0.64485535  0.60848365  0.26184266  1
  C  C1392  1  0.58797641  0.68811737  0.46905307  1
  H  H1393  1  0.57357641  0.56917658  0.37664524  1
  C  C1394  1  0.61414145  0.64012383  0.47226847  1
  C  C1395  1  0.60038849  0.72343497  0.42992551  1
  O  O1396  1  0.72946054  0.60456618  0.37778475  1
  O  O1397  1  0.67869665  0.51198125  0.26245404  1
  C  C1398  1  0.62431169  0.65645180  0.26056132  1
  H  H1399  1  0.64798849  0.74159956  0.36626718  1
  O  O1400  1  0.50166799  0.99068467  0.30697986  1
  H  H1401  1  0.58829934  0.53563848  0.28120066  1
  H  H1402  1  0.71929633  0.73992214  0.39845531  1
  H  H1403  1  0.58380572  0.76419971  0.42755757  1
  H  H1404  1  0.67203051  0.75199632  0.30220810  1
  H  H1405  1  0.57174878  0.88088686  0.32281610  1
  H  H1406  1  0.53612000  0.82553843  0.34319090  1
  H  H1407  1  0.52926196  0.88746973  0.37353791  1
  C  C1408  1  0.67707338  0.81140202  0.41459275  1
  C  C1409  1  0.67421630  0.79382589  0.29264538  1
  C  C1410  1  0.65100699  0.88727483  0.31218775  1
  C  C1411  1  0.64013876  0.82941915  0.38170327  1
  C  C1412  1  0.59323050  0.84561783  0.39719727  1
  C  C1413  1  0.55524137  0.86030907  0.35629881  1
  C  C1414  1  0.65503091  0.83377956  0.32571259  1
  H  H1415  1  0.63386210  0.91668483  0.33842304  1
  N  N1416  1  0.58180700  0.84378380  0.44659717  1
  C  C1417  1  0.66955702  0.90527415  0.26711272  1
  C  C1418  1  0.72317597  0.78341464  0.39614022  1
  N  N1419  1  0.67525985  0.81280136  0.46544687  1
  H  H1420  1  0.54684356  0.84681541  0.45815145  1
  C  C1421  1  0.63218854  0.94309530  0.47169641  1
  H  H1422  1  0.59824124  0.96643016  0.47303702  1
  H  H1423  1  0.73240808  0.79174542  0.35508010  1
  C  C1424  1  0.51693940  0.97480692  0.35574865  1
  H  H1425  1  0.52532910  0.94511770  0.45813612  1
  O  O1426  1  0.55622964  0.98375526  0.37024057  1
  H  H1427  1  0.62809688  0.90602998  0.44771804  1
  O  O1428  1  0.72358319  0.98725635  0.42235198  1
  H  H1429  1  0.66218317  0.96558454  0.45129890  1
  C  C1430  1  0.70167112  0.81217048  0.25233107  1
  H  H1431  1  0.66782283  0.94616336  0.25549495  1
  H  H1432  1  0.74644475  0.85598920  0.46306719  1
  C  C1433  1  0.50717678  0.61754743  0.36429910  1
  C  C1434  1  0.51551376  0.71868081  0.29068358  1
  H  H1435  1  0.54003192  0.69498821  0.31527892  1
  H  H1436  1  0.50390264  0.64284149  0.44167078  1
  C  C1437  1  0.55467638  0.51142485  0.27847530  1
  H  H1438  1  0.52924341  0.52772407  0.31047710  1
  H  H1439  1  0.74074835  0.72650894  0.48843269  1
  H  H1440  1  0.55404001  0.50480008  0.38411091  1
  H  H1441  1  0.50463558  0.81694931  0.26780917  1
  H  H1442  1  0.51599582  0.90845986  0.26528676  1
  H  H1443  1  0.72514280  0.87162907  0.37149530  1
  H  H1444  1  0.74549634  0.89924109  0.31278798  1
  H  H1445  1  0.69755003  0.79924185  0.49406067  1
  H  H1446  1  0.53963816  0.62093210  0.25332734  1
  H  H1447  1  0.99195614  0.80849429  0.35198339  1
  C  C1448  1  0.96117672  0.50409119  0.39641509  1
  C  C1449  1  0.97298170  0.75251399  0.41015980  1
  N  N1450  1  0.84893977  0.74187796  0.37074624  1
  H  H1451  1  0.91515470  0.50058581  0.32981897  1
  H  H1452  1  0.85550952  0.51061657  0.32214153  1
  N  N1453  1  0.99833439  0.95388067  0.39905830  1
  H  H1454  1  0.75562983  0.68981933  0.26507429  1
  H  H1455  1  0.97002280  0.99801958  0.47589928  1
  C  C1456  1  0.82663941  0.56899652  0.49751932  1
  H  H1457  1  0.76847256  0.91882590  0.37630180  1
  H  H1458  1  0.84687776  0.77834197  0.48888087  1
  C  C1459  1  0.82398528  0.85046965  0.45037295  1
  N  N1460  1  0.91617387  0.80629781  0.29296884  1
  C  C1461  1  0.94545461  0.51894017  0.34704119  1
  C  C1462  1  0.87040298  0.96909666  0.38848146  1
  H  H1463  1  0.75522251  0.79384483  0.41905079  1
  Zn  Zn1464  1  0.84923434  0.76154759  0.29644477  1
  C  C1465  1  0.75848005  0.88603551  0.35247708  1
  H  H1466  1  0.90063218  0.75390085  0.46245147  1
  H  H1467  1  0.90085641  0.93620943  0.27259624  1
  H  H1468  1  0.78912450  0.81936813  0.27086818  1
  C  C1469  1  0.92281924  0.85071167  0.26601488  1
  C  C1470  1  0.95968566  0.99582896  0.28987513  1
  H  H1471  1  0.93823243  0.90894687  0.32236567  1
  C  C1472  1  0.86126570  0.75221459  0.46024719  1
  C  C1473  1  0.96518344  0.98842286  0.39335241  1
  C  C1474  1  0.82090531  0.82354909  0.39976814  1
  C  C1475  1  0.77795807  0.65488917  0.49171199  1
  C  C1476  1  0.84162705  0.77252641  0.40852331  1
  C  C1477  1  0.87081329  0.86548959  0.46912090  1
  H  H1478  1  0.95218576  0.83422756  0.40025048  1
  C  C1479  1  0.82316193  0.97498038  0.40466668  1
  H  H1480  1  0.91209706  0.80830329  0.33235808  1
  H  H1481  1  0.87474426  0.89325182  0.31807063  1
  C  C1482  1  0.98243504  0.80808611  0.39340999  1
  C  C1483  1  0.90794868  0.89888645  0.29455354  1
  N  N1484  1  0.80392281  0.82086307  0.30837516  1
  H  H1485  1  0.90210927  0.84690681  0.45105112  1
  H  H1486  1  0.89633688  0.94193012  0.40590446  1
  C  C1487  1  0.78168436  0.86956778  0.47583040  1
  H  H1488  1  0.75765809  0.60859564  0.35328979  1
  H  H1489  1  0.95542193  0.58161167  0.29085694  1
  N  N1490  1  0.95824570  0.72380585  0.36765027  1
  H  H1491  1  0.80780794  0.95109677  0.43502157  1
  C  C1492  1  0.98344178  0.72226278  0.45313106  1
  C  C1493  1  0.96012663  0.67304019  0.46508236  1
  H  H1494  1  0.85002990  0.71142735  0.47004711  1
  H  H1495  1  0.90492489  0.62273864  0.44580103  1
  O  O1496  1  0.83655944  0.57442926  0.45245998  1
  N  N1497  1  0.85232003  0.62211120  0.35836459  1
  C  C1498  1  0.82778544  0.54178835  0.32614086  1
  Zn  Zn1499  1  0.89461357  0.68435903  0.36793634  1
  N  N1500  1  0.89792636  0.69540691  0.28601202  1
  C  C1501  1  0.86709826  0.61123451  0.26724215  1
  C  C1502  1  0.96968074  0.56023094  0.32380663  1
  Zn  Zn1503  1  0.96041834  0.74150494  0.29108026  1
  C  C1504  1  0.84944803  0.59534937  0.31706415  1
  C  C1505  1  0.79772138  0.84362959  0.35313745  1
  H  H1506  1  0.80150135  0.53396253  0.29567628  1
  H  H1507  1  0.76978300  0.64400932  0.45152958  1
  H  H1508  1  0.97524815  0.68828299  0.36554987  1
  N  N1509  1  0.92523075  0.65419116  0.43746064  1
  H  H1510  1  0.84465744  0.61018567  0.39521015  1
  C  C1511  1  0.89132108  0.65723229  0.25255798  1
  H  H1512  1  0.81314440  0.53601745  0.36516735  1
  N  N1513  1  0.61302109  0.72856422  0.66395473  1
  C  C1514  1  0.61326728  0.67826086  0.65567606  1
  C  C1515  1  0.65763276  0.65328282  0.64592258  1
  H  H1516  1  0.54764143  0.66100596  0.60888287  1
  C  C1517  1  0.56101682  0.65984568  0.64967475  1
  N  N1518  1  0.71299751  0.71158424  0.68618996  1
  C  C1519  1  0.64868072  0.60162547  0.62257501  1
  H  H1520  1  0.53463951  0.68182285  0.67444847  1
  H  H1521  1  0.55975732  0.61907400  0.66273169  1
  C  C1522  1  0.60973637  0.60106010  0.59049862  1
  H  H1523  1  0.58993600  0.63851237  0.58354715  1
  C  C1524  1  0.70486971  0.67003158  0.65873789  1
  C  C1525  1  0.66220584  0.70585884  0.54609894  1
  H  H1526  1  0.70945999  0.55740889  0.65494368  1
  C  C1527  1  0.67860834  0.55601816  0.63157836  1
  C  C1528  1  0.59588828  0.55544832  0.56585215  1
  H  H1529  1  0.56299836  0.55205056  0.54345332  1
  H  H1530  1  0.74249337  0.60517333  0.62692279  1
  N  N1531  1  0.51142867  0.60832820  0.51777469  1
  C  C1532  1  0.52072125  0.65620619  0.52437758  1
  H  H1533  1  0.67988398  0.66755466  0.55528497  1
  H  H1534  1  0.74471796  0.72784103  0.68990256  1
  H  H1535  1  0.62321679  0.70237414  0.55538648  1
  C  C1536  1  0.62127665  0.51047259  0.57765638  1
  C  C1537  1  0.73420090  0.75405017  0.58563444  1
  C  C1538  1  0.52921636  0.75005295  0.51796347  1
  C  C1539  1  0.68503034  0.75279289  0.56922026  1
  H  H1540  1  0.61060158  0.97697072  0.64271111  1
  C  C1541  1  0.57058424  0.97893368  0.65532428  1
  C  C1542  1  0.53309100  0.95615877  0.63047943  1
  Zn  Zn1543  1  0.66707254  0.77031464  0.69695162  1
  Zn  Zn1544  1  0.59196174  0.78850864  0.61709196  1
  N  N1545  1  0.52566223  0.81506816  0.63434987  1
  N  N1546  1  0.65318284  0.79237725  0.57182998  1
  N  N1547  1  0.56158091  0.78614848  0.54016196  1
  N  N1548  1  0.62478894  0.83261655  0.67189647  1
  C  C1549  1  0.59936550  0.86390598  0.70636624  1
  H  H1550  1  0.54131159  0.81908347  0.55004032  1
  Zn  Zn1551  1  0.66808398  0.86191658  0.61656213  1
  N  N1552  1  0.70161698  0.93114652  0.62130710  1
  N  N1553  1  0.63750865  0.88722808  0.54664856  1
  C  C1554  1  0.67046471  0.97514723  0.54980822  1
  C  C1555  1  0.69341305  0.97647507  0.59884873  1
  N  N1556  1  0.72074250  0.81320805  0.65122026  1
  C  C1557  1  0.64318935  0.93250840  0.52851529  1
  Zn  Zn1558  1  0.62177635  0.82282975  0.51031616  1
  H  H1559  1  0.70728700  0.92963061  0.65990795  1
  H  H1560  1  0.73205631  0.83878150  0.68017257  1
  C  C1561  1  0.54819221  0.85333010  0.71460436  1
  H  H1562  1  0.53339248  0.93358570  0.59272133  1
  C  C1563  1  0.51365989  0.83615139  0.67921872  1
  H  H1564  1  0.66385333  0.90587310  0.72836353  1
  C  C1565  1  0.62427904  0.90262709  0.73239033  1
  H  H1566  1  0.50446737  0.79016270  0.61299715  1
  C  C1567  1  0.66371504  0.51127875  0.60791279  1
  C  C1568  1  0.74184225  0.52337588  0.72662225  1
  H  H1569  1  0.72081676  0.96544100  0.74278662  1
  H  H1570  1  0.64405844  0.51911087  0.71989111  1
  C  C1571  1  0.54613695  0.69717544  0.50441758  1
  H  H1572  1  0.54601452  0.61779622  0.74847238  1
  H  H1573  1  0.60383948  0.61061212  0.50065802  1
  H  H1574  1  0.66564835  0.70591467  0.50378867  1
  C  C1575  1  0.75144566  0.64371206  0.64258466  1
  H  H1576  1  0.75512345  0.91224936  0.54584018  1
  H  H1577  1  0.99440298  0.90905865  0.52555925  1
  H  H1578  1  0.96147055  0.80728845  0.51659230  1
  C  C1579  1  0.91587218  0.75325557  0.58800689  1
  H  H1580  1  0.77553240  0.95375628  0.60157935  1
  H  H1581  1  0.77271990  0.63930408  0.67770083  1
  C  C1582  1  0.75340673  0.78777854  0.62339674  1
  H  H1583  1  0.92333024  0.83929380  0.72558066  1
  H  H1584  1  0.91927915  0.87618922  0.62179977  1
  N  N1585  1  0.92871925  0.83936134  0.62400562  1
  C  C1586  1  0.83943395  0.95201032  0.58016695  1
  H  H1587  1  0.90204581  0.74223997  0.73112803  1
  H  H1588  1  0.95527089  0.89885410  0.71644088  1
  H  H1589  1  0.98570070  0.92031183  0.61500899  1
  H  H1590  1  0.81623453  0.83808902  0.62419462  1
  C  C1591  1  0.95882100  0.80945059  0.64893405  1
  C  C1592  1  0.99779342  0.79199912  0.52189121  1
  H  H1593  1  0.82227791  0.78684335  0.66470213  1
  O  O1594  1  0.79947651  0.98138913  0.60276007  1
  H  H1595  1  0.94664900  0.61319098  0.52656475  1
  C  C1596  1  0.99260582  0.82599418  0.69200259  1
  H  H1597  1  0.82559419  0.77252939  0.59774322  1
  C  C1598  1  0.83024613  0.91927893  0.53392156  1
  C  C1599  1  0.78392067  0.90507279  0.51795748  1
  N  N1600  1  0.90185000  0.80213661  0.57592720  1
  C  C1601  1  0.95937933  0.85850807  0.72985297  1
  H  H1602  1  0.83130456  0.51429018  0.60732437  1
  C  C1603  1  0.87344163  0.89951223  0.51097886  1
  H  H1604  1  0.90855478  0.90439837  0.53200229  1
  H  H1605  1  0.88502577  0.82167591  0.54894132  1
  O  O1606  1  0.87789674  0.96344617  0.59793566  1
  C  C1607  1  0.75741006  0.69862282  0.51347277  1
  C  C1608  1  0.76084182  0.70759592  0.56689841  1
  C  C1609  1  0.80627682  0.79581637  0.62672561  1
  C  C1610  1  0.85398810  0.59662367  0.67631297  1
  O  O1611  1  0.83330108  0.52915781  0.52200409  1
  C  C1612  1  0.89432649  0.70424506  0.56089581  1
  C  C1613  1  0.80680885  0.51548652  0.64181918  1
  H  H1614  1  0.85466547  0.70687733  0.55699129  1
  O  O1615  1  0.89153892  0.58569948  0.65371551  1
  C  C1616  1  0.94798296  0.67438755  0.68015364  1
  H  H1617  1  0.90742254  0.67522089  0.67883622  1
  O  O1618  1  0.84651585  0.63842717  0.69891808  1
  C  C1619  1  0.80815565  0.62673924  0.57337111  1
  C  C1620  1  0.81017020  0.55517304  0.67895839  1
  H  H1621  1  0.90617616  0.70507013  0.52095862  1
  C  C1622  1  0.77630816  0.56168266  0.71814452  1
  H  H1623  1  0.81491180  0.69416953  0.61990039  1
  H  H1624  1  0.86142902  0.69130819  0.72719872  1
  H  H1625  1  0.82839889  0.59718630  0.59429169  1
  H  H1626  1  0.90704330  0.66655373  0.57857819  1
  C  C1627  1  0.97322813  0.64129779  0.71227342  1
  C  C1628  1  0.80282234  0.61982346  0.52319736  1
  C  C1629  1  0.78609819  0.67030317  0.59979041  1
  C  C1630  1  0.97595972  0.71282709  0.65272197  1
  C  C1631  1  0.97561140  0.63851035  0.51042954  1
  H  H1632  1  0.95324261  0.61203878  0.73695173  1
  C  C1633  1  0.94936041  0.75846069  0.62793827  1
  H  H1634  1  0.99234844  0.66006750  0.54310065  1
  O  O1635  1  0.75495902  0.96308153  0.74065783  1
  H  H1636  1  0.84571626  0.96678367  0.74730910  1
  H  H1637  1  0.77946225  0.59504794  0.74148964  1
  C  C1638  1  0.63671456  0.68161760  0.88123348  1
  C  C1639  1  0.58907029  0.64565238  0.88516480  1
  H  H1640  1  0.71263566  0.65047465  0.89314227  1
  C  C1641  1  0.72577650  0.60350950  0.80952174  1
  C  C1642  1  0.68031599  0.57731338  0.81074178  1
  N  N1643  1  0.63082669  0.65165302  0.91474653  1
  H  H1644  1  0.58467565  0.60711112  0.86643819  1
  H  H1645  1  0.55536641  0.66261560  0.89945538  1
  O  O1646  1  0.63657350  0.60183049  0.78108024  1
  C  C1647  1  0.66539821  0.71934611  0.85248950  1
  H  H1648  1  0.70578206  0.67695101  0.77472057  1
  H  H1649  1  0.59812422  0.53534251  0.80486263  1
  C  C1650  1  0.60033355  0.57286537  0.78326201  1
  O  O1651  1  0.67204055  0.53918112  0.83389748  1
  C  C1652  1  0.73677933  0.65306331  0.78901793  1
  C  C1653  1  0.52879864  0.54285136  0.76534599  1
  N  N1654  1  0.55635726  0.58365460  0.76441556  1
  C  C1655  1  0.71545042  0.73114847  0.86958538  1
  C  C1656  1  0.59744728  0.72044053  0.78917338  1
  C  C1657  1  0.64553351  0.74153942  0.80809952  1
  H  H1658  1  0.57308390  0.69919088  0.81873459  1
  H  H1659  1  0.71664092  0.52463368  0.75920404  1
  C  C1660  1  0.51953088  0.73843785  0.92725808  1
  O  O1661  1  0.64249845  0.97738792  0.93324370  1
  C  C1662  1  0.73440345  0.68528763  0.89468587  1
  N  N1663  1  0.66899084  0.76790362  0.77266494  1
  H  H1664  1  0.70282671  0.78383809  0.77598300  1
  H  H1665  1  0.72179406  0.81303295  0.85029565  1
  H  H1666  1  0.57540272  0.87954716  0.88604124  1
  C  C1667  1  0.55185050  0.88844750  0.85494864  1
  C  C1668  1  0.56204248  0.86385690  0.81024534  1
  H  H1669  1  0.59365258  0.83874264  0.80459063  1
  C  C1670  1  0.68582742  0.87160628  0.94718830  1
  C  C1671  1  0.53462110  0.87538474  0.76493205  1
  H  H1672  1  0.53854341  0.92047035  0.94363465  1
  H  H1673  1  0.71330679  0.90170011  0.94240229  1
  H  H1674  1  0.65339748  0.88563109  0.92800038  1
  H  H1675  1  0.54136986  0.76582586  0.94626920  1
  O  O1676  1  0.54109977  0.89807451  0.97635466  1
  O  O1677  1  0.66296359  0.95991640  0.85087953  1
  C  C1678  1  0.73962726  0.77938607  0.86763645  1
  H  H1679  1  0.52419699  0.77735670  0.85429210  1
  H  H1680  1  0.62912545  0.96657613  0.84868218  1
  H  H1681  1  0.69977384  0.83562406  0.92614890  1
  H  H1682  1  0.60377757  0.68918354  0.75785348  1
  H  H1683  1  0.74447406  0.95564043  0.83142388  1
  H  H1684  1  0.50803133  0.76531151  0.79103220  1
  C  C1685  1  0.67529381  0.97467886  0.90323047  1
  C  C1686  1  0.72780778  0.98408435  0.90889616  1
  H  H1687  1  0.54561051  0.58122700  0.98248103  1
  H  H1688  1  0.55607601  0.99778338  0.88637654  1
  H  H1689  1  0.60737875  0.92871238  0.76184707  1
  C  C1690  1  0.51118614  0.74343502  0.87451036  1
  C  C1691  1  0.50105529  0.69074868  0.95274574  1
  H  H1692  1  0.74974297  0.53547635  0.85200101  1
  O  O1693  1  0.50766098  0.95009303  0.90041603  1
  C  C1694  1  0.51316313  0.92607995  0.85905899  1
  H  H1695  1  0.57331245  0.75100679  0.76978023  1
  O  O1696  1  0.72496789  0.88046004  0.76155852  1
  H  H1697  1  0.96278605  0.99739875  0.94924285  1
  H  H1698  1  0.95724914  0.99868451  0.84341201  1
  H  H1699  1  0.80681568  0.81309327  0.88568950  1
  N  N1700  1  0.88277381  0.71364262  0.75210614  1
  H  H1701  1  0.83190181  0.96805181  0.84188727  1
  C  C1702  1  0.75761603  0.97180578  0.86693427  1
  C  C1703  1  0.90329555  0.96652756  0.92049596  1
  C  C1704  1  0.76012623  0.90736980  0.75966707  1
  C  C1705  1  0.80667762  0.98112752  0.87338508  1
  H  H1706  1  0.99117062  0.66411289  0.81467244  1
  H  H1707  1  0.95662005  0.75448339  0.78625109  1
  H  H1708  1  0.98119434  0.97827592  0.78465049  1
  C  C1709  1  0.89802866  0.86155891  0.80859031  1
  C  C1710  1  0.93722945  0.80595727  0.91562086  1
  H  H1711  1  0.85844277  0.78322494  0.82174870  1
  C  C1712  1  0.85518093  0.73786425  0.92470574  1
  C  C1713  1  0.98001062  0.69366041  0.84208988  1
  H  H1714  1  0.86411334  0.91248200  0.86725296  1
  H  H1715  1  0.96266704  0.67345330  0.87444394  1
  O  O1716  1  0.87983640  0.79303268  0.90819960  1
  H  H1717  1  0.90662353  0.88174277  0.90700685  1
  C  C1718  1  0.98536621  0.97239451  0.82632014  1
  H  H1719  1  0.95263573  0.81341977  0.95418299  1
  C  C1720  1  0.84971634  0.92820815  0.76348061  1
  H  H1721  1  0.78454452  0.81735582  0.77921175  1
  C  C1722  1  0.94795572  0.85239739  0.82540966  1
  H  H1723  1  0.97561239  0.93056786  0.83700928  1
  H  H1724  1  0.92159839  0.94345630  0.79404889  1
  C  C1725  1  0.85834588  0.82319334  0.80495240  1
  C  C1726  1  0.87970034  0.91402824  0.90497021  1
  C  C1727  1  0.84880918  0.58386100  0.98547482  1
  C  C1728  1  0.78424839  0.67017429  0.78734589  1
  O  O1729  1  0.82134781  0.56294574  0.95667942  1
  O  O1730  1  0.87701444  0.70660250  0.94991875  1
  C  C1731  1  0.87141162  0.65463510  0.81816816  1
  H  H1732  1  0.83346534  0.56368872  0.85481195  1
  C  C1733  1  0.80846727  0.58918058  0.83387929  1
  N  N1734  1  0.90628479  0.58868491  0.88162596  1
  H  H1735  1  0.88633645  0.52094947  0.90553874  1
  C  C1736  1  0.78048234  0.68448647  0.91357294  1
  C  C1737  1  0.94017382  0.73001142  0.81619963  1
  C  C1738  1  0.76262299  0.57285347  0.83394112  1
  C  C1739  1  0.90971881  0.55451172  0.92147364  1
  H  H1740  1  0.79558180  0.64947126  0.93037363  1
  H  H1741  1  0.94806863  0.54382369  0.91392382  1
  C  C1742  1  0.98073842  0.85735118  0.78341173  1
  C  C1743  1  0.89272476  0.61864919  0.85241705  1
  C  C1744  1  0.82066993  0.63826258  0.80984914  1
  H  H1745  1  0.79336153  0.70692878  0.76890953  1
  C  C1746  1  0.89772431  0.69926302  0.79759931  1
  O  O1747  1  0.89598234  0.57928888  0.97495532  1
  C  C1748  1  0.89099600  0.91426131  0.79013724  1
  C  C1749  1  0.78561148  0.77785856  0.88604713  1
  H  H1750  1  0.94720007  0.76448664  0.90982077  1
  H  H1751  1  0.84898927  0.90546180  0.93176195  1
  H  H1752  1  0.92968820  0.75939061  0.84617698  1
  C  C1753  1  0.96242314  0.83837385  0.87730422  1
  H  H1754  1  0.86957172  0.80681014  0.94428364  1
  C  C1755  1  0.81724682  0.84043726  0.78488499  1
  C  C1756  1  0.80911052  0.89326431  0.76862510  1
  C  C1757  1  0.80556267  0.73147693  0.90626321  1
  N  N1758  1  0.94587552  0.96480381  0.94162182  1
  H  H1759  1  0.99935505  0.56370609  0.98137682  1
