# generated using pymatgen
data_ZnH13C22N3O4
_symmetry_space_group_name_H-M   'P 1'
_cell_length_a   22.94113922
_cell_length_b   20.95598212
_cell_length_c   18.71392807
_cell_angle_alpha   90.00000000
_cell_angle_beta   90.00000000
_cell_angle_gamma   90.00000000
_symmetry_Int_Tables_number   1
_chemical_formula_structural   ZnH13C22N3O4
_chemical_formula_sum   'Zn18 H234 C396 N54 O72'
_cell_volume   8996.79771156
_cell_formula_units_Z   18
loop_
 _symmetry_equiv_pos_site_id
 _symmetry_equiv_pos_as_xyz
  1  'x, y, z'
loop_
 _atom_site_type_symbol
 _atom_site_label
 _atom_site_symmetry_multiplicity
 _atom_site_fract_x
 _atom_site_fract_y
 _atom_site_fract_z
 _atom_site_occupancy
  H  H0  1  0.20834142  0.22119466  0.12748898  1
  C  C1  1  0.06522256  0.10277441  0.43429884  1
  H  H2  1  0.08744557  0.13186962  0.39350478  1
  C  C3  1  0.11759555  0.23631730  0.34641351  1
  C  C4  1  0.11592439  0.27619810  0.09865343  1
  C  C5  1  0.02655182  0.04652535  0.19502533  1
  C  C6  1  0.16500725  0.48343807  0.41831469  1
  Zn  Zn7  1  0.23953849  0.31779480  0.28158568  1
  C  C8  1  0.12747706  0.48377227  0.35928064  1
  C  C9  1  0.14147419  0.19636092  0.29228996  1
  C  C10  1  0.20281425  0.32229342  0.04384152  1
  H  H11  1  0.12308551  0.12357585  0.21868497  1
  O  O12  1  0.11225028  0.44811180  0.24261835  1
  C  C13  1  0.08451477  0.01232266  0.19840681  1
  C  C14  1  0.14775268  0.29055982  0.03611443  1
  C  C15  1  0.04312155  0.15351961  0.27411869  1
  C  C16  1  0.15045263  0.28327801  0.38553390  1
  C  C17  1  0.11722074  0.00469703  0.13436733  1
  H  H18  1  0.07010417  0.25885185  0.09666768  1
  H  H19  1  0.09487049  0.38496377  0.48092744  1
  H  H20  1  0.03604711  0.25889775  0.41219450  1
  C  C21  1  0.14643204  0.45456524  0.28996772  1
  O  O22  1  0.20713803  0.43692701  0.28391619  1
  C  C23  1  0.03022000  0.37687350  0.39981050  1
  C  C24  1  0.01014666  0.10675255  0.22913772  1
  H  H25  1  0.12659650  0.31976403  0.42067705  1
  H  H26  1  0.18729630  0.19973890  0.28373949  1
  H  H27  1  0.05405701  0.40243449  0.35769538  1
  H  H28  1  0.20750504  0.40643752  0.24251120  1
  C  C29  1  0.05160259  0.36742437  0.46683901  1
  H  H30  1  0.01450056  0.40875205  0.06166118  1
  C  C31  1  0.10481731  0.15404361  0.25944580  1
  H  H32  1  0.11121579  0.27425880  0.21664757  1
  C  C33  1  0.13693315  0.28471256  0.16742007  1
  C  C34  1  0.05690880  0.23399965  0.36483081  1
  N  N35  1  0.19215926  0.30521298  0.17769203  1
  H  H36  1  0.09480111  0.01152312  0.08488344  1
  H  H37  1  0.20733080  0.45825956  0.41169288  1
  C  C38  1  0.01182270  0.07807211  0.41236427  1
  C  C39  1  0.21895386  0.33302359  0.11485553  1
  H  H40  1  0.24136849  0.07414912  0.04742410  1
  N  N41  1  0.19263553  0.07624848  0.48970836  1
  O  O42  1  0.21361727  0.17469071  0.12259309  1
  C  C43  1  0.01856345  0.19599400  0.32423269  1
  O  O44  1  0.20226067  0.29363800  0.38560229  1
  H  H45  1  0.06611576  0.03531360  0.60274808  1
  C  C46  1  0.18121996  0.22839626  0.68381109  1
  C  C47  1  0.18793263  0.48818082  0.68487773  1
  H  H48  1  0.06000412  0.16046339  0.60133939  1
  C  C49  1  0.06190052  0.20261493  0.70772201  1
  H  H50  1  0.05064496  0.05759130  0.76502964  1
  C  C51  1  0.22195229  0.44220106  0.64333998  1
  C  C52  1  0.15916242  0.24243233  0.75311484  1
  C  C53  1  0.08617917  0.18488341  0.64242199  1
  N  N54  1  0.23359560  0.15335524  0.56812642  1
  O  O55  1  0.11353801  0.25357167  0.87922104  1
  O  O56  1  0.18598175  0.40614036  0.59042000  1
  N  N57  1  0.21459847  0.49174017  0.98580343  1
  C  C58  1  0.14779704  0.19219802  0.63342332  1
  C  C59  1  0.17389139  0.15226871  0.57513971  1
  H  H60  1  0.18198189  0.34914244  0.71988443  1
  O  O61  1  0.04842163  0.33791002  0.65781194  1
  C  C62  1  0.07507966  0.23674867  0.83782305  1
  C  C63  1  0.01480288  0.33829511  0.52180891  1
  C  C64  1  0.22072620  0.13324598  0.84143299  1
  H  H65  1  0.21029426  0.37165414  0.58084539  1
  H  H66  1  0.03481805  0.34193894  0.95044720  1
  N  N67  1  0.10837936  0.01137716  0.71054074  1
  H  H68  1  0.18663971  0.26349593  0.79844572  1
  N  N69  1  0.11538103  0.48860436  0.95889227  1
  H  H70  1  0.01470004  0.47546434  0.52490307  1
  Zn  Zn71  1  0.17133612  0.07278150  0.76967484  1
  C  C72  1  0.17254474  0.47291922  0.93820673  1
  C  C73  1  0.19995599  0.42754166  0.88193189  1
  C  C74  1  0.08782730  0.08705256  0.50048481  1
  C  C75  1  0.09988306  0.22787128  0.76026722  1
  C  C76  1  0.20203849  0.37020483  0.77087113  1
  C  C77  1  0.14822454  0.10767661  0.52395529  1
  H  H78  1  0.22772950  0.24137496  0.67020685  1
  H  H79  1  0.13007177  0.43086385  0.79336462  1
  C  C80  1  0.17205122  0.41204424  0.81479559  1
  C  C81  1  0.24819651  0.17038153  0.89306905  1
  C  C82  1  0.05183841  0.05128731  0.55016650  1
  H  H83  1  0.00375315  0.22734281  0.94655416  1
  H  H84  1  0.23703492  0.16339967  0.94938383  1
  H  H85  1  0.01505591  0.19394773  0.71425648  1
  O  O86  1  0.02518461  0.22218179  0.84937473  1
  C  C87  1  0.03444753  0.33869465  0.59631300  1
  H  H88  1  0.10519487  0.46121703  0.64156506  1
  C  C89  1  0.24138154  0.10804960  0.51414028  1
  C  C90  1  0.00906952  0.03230055  0.93491282  1
  C  C91  1  0.12659732  0.49096125  0.67919705  1
  C  C92  1  0.23929904  0.13277123  0.77158560  1
  C  C93  1  0.05352105  0.01589990  0.72661738  1
  H  H94  1  0.08232413  0.47468769  0.92800778  1
  H  H95  1  0.13424652  0.27403669  0.98184873  1
  C  C96  1  0.01131853  0.32227901  0.99766914  1
  H  H97  1  0.22814557  0.34125277  0.99568243  1
  H  H98  1  0.12226714  0.82295095  0.29971702  1
  C  C99  1  0.16856857  0.88855451  0.43532840  1
  H  H100  1  0.14471349  0.57957390  0.32582658  1
  H  H101  1  0.20460162  0.72578166  0.13776888  1
  C  C102  1  0.07106562  0.51014130  0.36680867  1
  H  H103  1  0.01996256  0.61153735  0.21821850  1
  C  C104  1  0.18689203  0.62848733  0.10018011  1
  C  C105  1  0.12011478  0.81177059  0.24373397  1
  C  C106  1  0.21092573  0.56775272  0.08583248  1
  H  H107  1  0.09741253  0.53876774  0.16667006  1
  C  C108  1  0.06493448  0.56219880  0.13075822  1
  O  O109  1  0.11939016  0.86820926  0.42926958  1
  H  H110  1  0.14047280  0.63893583  0.08229782  1
  C  C111  1  0.07587210  0.75811778  0.13727049  1
  H  H112  1  0.04399848  0.75358124  0.24928317  1
  C  C113  1  0.17591020  0.98514741  0.13966655  1
  C  C114  1  0.23602724  0.81222893  0.37883736  1
  H  H115  1  0.19686481  0.78033563  0.37236950  1
  N  N116  1  0.10952605  0.78794520  0.09158036  1
  C  C117  1  0.15178455  0.82367190  0.12109990  1
  H  H118  1  0.17114050  0.62612265  0.44557463  1
  C  C119  1  0.02193266  0.60324733  0.16034895  1
  C  C120  1  0.05646585  0.54289449  0.42877174  1
  C  C121  1  0.06993783  0.55324793  0.05469723  1
  C  C122  1  0.16077889  0.83865392  0.19479150  1
  C  C123  1  0.20544566  0.62473561  0.40278228  1
  H  H124  1  0.04110013  0.72734290  0.11672604  1
  C  C125  1  0.22785964  0.60951126  0.28031814  1
  H  H126  1  0.21479688  0.59398746  0.22543358  1
  C  C127  1  0.19999065  0.97661531  0.20639385  1
  H  H128  1  0.02824558  0.87121528  0.10986364  1
  C  C129  1  0.18961207  0.85211049  0.06060658  1
  O  O130  1  0.01067483  0.90151067  0.07535800  1
  H  H131  1  0.19928449  0.87037660  0.21197958  1
  C  C132  1  0.22976840  0.87093386  0.41673480  1
  C  C133  1  0.18826145  0.60017326  0.33742789  1
  H  H134  1  0.01407815  0.56831919  0.43426661  1
  C  C135  1  0.07749755  0.77181519  0.21051785  1
  C  C136  1  0.22345989  0.67611638  0.12893626  1
  H  H137  1  0.20205824  0.97603841  0.09192545  1
  C  C138  1  0.09444829  0.54321722  0.48935515  1
  Zn  Zn139  1  0.18160311  0.97765946  0.48237989  1
  C  C140  1  0.03112489  0.58363818  0.00513049  1
  C  C141  1  0.14805148  0.50813398  0.48474057  1
  C  C142  1  0.11884504  0.51890874  0.02110169  1
  C  C143  1  0.18314737  0.51810439  0.03831282  1
  N  N144  1  0.24686857  0.87319986  0.05710986  1
  H  H145  1  0.00554799  0.93820158  0.10244370  1
  H  H146  1  0.04185184  0.50862536  0.31948079  1
  H  H147  1  0.08724824  0.99970826  0.31747410  1
  C  C148  1  0.17061021  0.98568161  0.27032200  1
  H  H149  1  0.19645758  0.96791873  0.31486979  1
  C  C150  1  0.11014604  0.99912480  0.26801320  1
  C  C151  1  0.13432217  0.65330623  0.88285681  1
  C  C152  1  0.19355839  0.67824595  0.89914829  1
  C  C153  1  0.19258692  0.56943836  0.77433853  1
  H  H154  1  0.21560411  0.59064235  0.96250312  1
  C  C155  1  0.02097198  0.92275198  0.65451689  1
  C  C156  1  0.13003781  0.57539957  0.76906351  1
  N  N157  1  0.17487049  0.70648037  0.65869056  1
  C  C158  1  0.10622662  0.61836012  0.82236676  1
  H  H159  1  0.24952554  0.73948257  0.67363007  1
  N  N160  1  0.01466329  0.77234085  0.94335425  1
  H  H161  1  0.18622450  0.77134863  0.84641856  1
  N  N162  1  0.09309625  0.68698225  0.91834958  1
  H  H163  1  0.17819226  0.50477272  0.53158780  1
  C  C164  1  0.12424828  0.81681515  0.73813018  1
  Zn  Zn165  1  0.20323927  0.63069988  0.59891837  1
  N  N166  1  0.02260202  0.65239777  0.61732506  1
  H  H167  1  0.04040694  0.77221993  0.70544099  1
  C  C168  1  0.11766718  0.71794141  0.66699408  1
  H  H169  1  0.04048292  0.57842268  0.94650935  1
  C  C170  1  0.17635866  0.90406765  0.88480636  1
  C  C171  1  0.19791133  0.88156621  0.95217717  1
  C  C172  1  0.20489473  0.74908889  0.69160629  1
  C  C173  1  0.12154401  0.95786299  0.66723098  1
  H  H174  1  0.10273602  0.86026243  0.76402799  1
  N  N175  1  0.11599189  0.62611208  0.58334960  1
  C  C176  1  0.08224797  0.66766207  0.62035699  1
  C  C177  1  0.18832352  0.80898786  0.73135947  1
  C  C178  1  0.21437307  0.73984461  0.87772431  1
  N  N179  1  0.04991939  0.63506081  0.82505479  1
  H  H180  1  0.20711261  0.92486943  0.84280037  1
  C  C181  1  0.07924724  0.58385319  0.55343096  1
  H  H182  1  0.09839957  0.88029220  0.59757987  1
  C  C183  1  0.00901283  0.97626344  0.69876906  1
  O  O184  1  0.07019275  0.90882422  0.84175147  1
  C  C185  1  0.22117248  0.52627630  0.73389743  1
  C  C186  1  0.04377278  0.67806782  0.88247573  1
  C  C187  1  0.09831663  0.53522857  0.72093140  1
  Zn  Zn188  1  0.09945015  0.77770322  0.97892308  1
  C  C189  1  0.11874145  0.90591985  0.86224958  1
  C  C190  1  0.09078494  0.77098309  0.70552890  1
  C  C191  1  0.02016365  0.59815355  0.58024303  1
  H  H192  1  0.21855961  0.60250015  0.80960332  1
  N  N193  1  0.16161222  0.84737051  0.99597609  1
  O  O194  1  0.22211829  0.84709682  0.75500168  1
  C  C195  1  0.18438472  0.95357427  0.65235092  1
  C  C196  1  0.08139967  0.91534319  0.63652396  1
  C  C197  1  0.23043318  0.63774364  0.94164481  1
  H  H198  1  0.04930218  0.54341073  0.71452984  1
  H  H199  1  0.20603652  0.86920080  0.59153474  1
  N  N200  1  0.21490159  0.91618296  0.59859740  1
  N  N201  1  0.21692622  0.99197856  0.69603832  1
  C  C202  1  0.35062795  0.49009453  0.39833058  1
  H  H203  1  0.41888695  0.07692263  0.08953673  1
  C  C204  1  0.39955630  0.39754237  0.30628353  1
  C  C205  1  0.45893286  0.11357065  0.18938199  1
  O  O206  1  0.41800296  0.15093564  0.18770755  1
  C  C207  1  0.30533252  0.22016094  0.07660612  1
  C  C208  1  0.39960440  0.02343600  0.25749891  1
  C  C209  1  0.32287900  0.47583848  0.33259088  1
  C  C210  1  0.27235345  0.11302420  0.04287748  1
  C  C211  1  0.38552171  0.03824910  0.45150048  1
  C  C212  1  0.42639126  0.40962327  0.37059214  1
  C  C213  1  0.34828403  0.43262326  0.28482836  1
  C  C214  1  0.40489728  0.23021528  0.48257902  1
  H  H215  1  0.42423025  0.18818133  0.45550679  1
  C  C216  1  0.32942313  0.41478420  0.20835385  1
  C  C217  1  0.46842555  0.03595281  0.00154518  1
  C  C218  1  0.27313223  0.36641437  0.13437725  1
  N  N219  1  0.28461079  0.37164175  0.20238567  1
  H  H220  1  0.29890347  0.06114000  0.40099353  1
  C  C221  1  0.43611806  0.03318126  0.06645106  1
  C  C222  1  0.40208707  0.45544640  0.41367207  1
  C  C223  1  0.34815626  0.32764864  0.48075834  1
  N  N224  1  0.31904716  0.39756887  0.08631311  1
  H  H225  1  0.36073783  0.05195324  0.25431539  1
  C  C226  1  0.36863158  0.27224026  0.44621943  1
  C  C227  1  0.35438688  0.21373606  0.03403085  1
  H  H228  1  0.32540637  0.36548416  0.44348493  1
  H  H229  1  0.34601074  0.36011622  0.06241450  1
  C  C230  1  0.34982100  0.43391991  0.14012255  1
  H  H231  1  0.41676601  0.35689566  0.27280851  1
  C  C232  1  0.45312258  0.04855866  0.23260356  1
  C  C233  1  0.43385018  0.46767987  0.48777016  1
  H  H234  1  0.46595294  0.38665266  0.39087197  1
  O  O235  1  0.40435415  0.35403863  0.02037227  1
  H  H236  1  0.29934039  0.26278506  0.11155606  1
  H  H237  1  0.46470073  0.43568042  0.08211430  1
  C  C238  1  0.32814710  0.06135891  0.44777385  1
  C  C239  1  0.35246523  0.25580176  0.36892037  1
  O  O240  1  0.36582566  0.20771458  0.33799528  1
  H  H241  1  0.38354988  0.49127494  0.00106166  1
  O  O242  1  0.32200689  0.29980669  0.34035878  1
  H  H243  1  0.38558585  0.25089926  0.02954455  1
  C  C244  1  0.26279939  0.17019544  0.08179505  1
  H  H245  1  0.40457434  0.01279878  0.40890019  1
  C  C246  1  0.39112906  0.48533487  0.12306878  1
  O  O247  1  0.48028403  0.43964503  0.49947851  1
  H  H248  1  0.41395837  0.49386298  0.23259528  1
  C  C249  1  0.36020105  0.15576441  0.99529819  1
  C  C250  1  0.42141671  0.32123121  0.72887229  1
  C  C251  1  0.41829049  0.05064428  0.51556315  1
  C  C252  1  0.41512499  0.14239345  0.95540701  1
  C  C253  1  0.46270204  0.09622277  0.95832577  1
  H  H254  1  0.32793498  0.23050915  0.91079812  1
  C  C255  1  0.45723312  0.37945723  0.72665644  1
  N  N256  1  0.33812012  0.10205812  0.57099408  1
  N  N257  1  0.43468584  0.18416245  0.90584403  1
  C  C258  1  0.39727383  0.28408110  0.67026211  1
  Zn  Zn259  1  0.30280942  0.17115947  0.64554833  1
  H  H260  1  0.32217022  0.05753665  0.97215762  1
  C  C261  1  0.41801439  0.23917702  0.55434379  1
  O  O262  1  0.43990300  0.30202569  0.92943917  1
  N  N263  1  0.36378940  0.23416289  0.69456954  1
  C  C264  1  0.32487445  0.00268199  0.70818792  1
  C  C265  1  0.36049000  0.24770298  0.76773972  1
  N  N266  1  0.39273692  0.29923403  0.78963090  1
  C  C267  1  0.44360508  0.34338478  0.97802308  1
  C  C268  1  0.31288821  0.20440483  0.79750514  1
  N  N269  1  0.28418653  0.16611046  0.74806396  1
  C  C270  1  0.38843359  0.28905771  0.59074251  1
  C  C271  1  0.29821246  0.20682285  0.87159957  1
  C  C272  1  0.38781934  0.00467496  0.81320090  1
  C  C273  1  0.39025251  0.07822509  0.57563336  1
  H  H274  1  0.41463374  0.09659766  0.62388337  1
  H  H275  1  0.44520171  0.39472954  0.84340514  1
  C  C276  1  0.46473036  0.41269584  0.79260360  1
  H  H277  1  0.34519733  0.38457908  0.57761147  1
  C  C278  1  0.48183725  0.40063145  0.65878711  1
  H  H279  1  0.42779212  0.01779650  0.84065065  1
  C  C280  1  0.49563034  0.47143750  0.78791018  1
  H  H281  1  0.27790445  0.31428194  0.75859104  1
  H  H282  1  0.32904661  0.36167849  0.87576994  1
  H  H283  1  0.41096802  0.03801889  0.70284451  1
  H  H284  1  0.44862624  0.20564558  0.58068781  1
  C  C285  1  0.36103897  0.33996499  0.55229218  1
  H  H286  1  0.41602023  0.22994019  0.89281550  1
  H  H287  1  0.47398610  0.37064104  0.60926234  1
  C  C288  1  0.30607280  0.08792598  0.51350653  1
  C  C289  1  0.37534491  0.02486275  0.73932146  1
  C  C290  1  0.28471962  0.37303580  0.85396524  1
  C  C291  1  0.31971884  0.10444585  0.99939376  1
  H  H292  1  0.39349611  0.48816374  0.73272382  1
  O  O293  1  0.38138727  0.47332837  0.87598018  1
  O  O294  1  0.27083081  0.42876647  0.65034021  1
  N  N295  1  0.25602288  0.41150970  0.89592327  1
  H  H296  1  0.46335517  0.03234267  0.51895871  1
  H  H297  1  0.49008473  0.26075617  0.77829479  1
  C  C298  1  0.49260442  0.17380193  0.89220463  1
  C  C299  1  0.25748929  0.34995685  0.79139104  1
  Zn  Zn300  1  0.29192052  0.43707907  0.99345881  1
  O  O301  1  0.36801915  0.69872329  0.18955119  1
  N  N302  1  0.35076903  0.68155728  0.47082298  1
  C  C303  1  0.45113281  0.92593441  0.28789944  1
  C  C304  1  0.29058254  0.79436388  0.35214694  1
  C  C305  1  0.34146915  0.83445539  0.37127957  1
  Zn  Zn306  1  0.31576353  0.84841449  0.13481879  1
  C  C307  1  0.27983518  0.90887242  0.43907149  1
  C  C308  1  0.46324812  0.56196170  0.17045268  1
  H  H309  1  0.33452735  0.52504291  0.43594500  1
  C  C310  1  0.33585468  0.89088637  0.41333354  1
  O  O311  1  0.40226764  0.86095738  0.15916787  1
  C  C312  1  0.27831097  0.65581355  0.14525930  1
  O  O313  1  0.28969581  0.76110622  0.18440997  1
  H  H314  1  0.31326443  0.63384886  0.00589439  1
  C  C315  1  0.40407188  0.50918004  0.05150914  1
  C  C316  1  0.30644575  0.59774893  0.13368202  1
  N  N317  1  0.46377623  0.64696221  0.34011785  1
  H  H318  1  0.40252857  0.96654519  0.15220574  1
  H  H319  1  0.35533755  0.59173553  0.13997394  1
  H  H320  1  0.48493255  0.58625733  0.21510376  1
  H  H321  1  0.29219499  0.50538192  0.09409332  1
  C  C322  1  0.45759253  0.92446717  0.06783922  1
  C  C323  1  0.31698965  0.71023604  0.17455154  1
  C  C324  1  0.47512129  0.58150022  0.09845974  1
  H  H325  1  0.44958200  0.55342628  0.36500237  1
  H  H326  1  0.32338811  0.63007610  0.25439740  1
  O  O327  1  0.29727053  0.94548849  0.16698967  1
  H  H328  1  0.41320472  0.78635829  0.46646680  1
  H  H329  1  0.29408088  0.75178566  0.32022172  1
  C  C330  1  0.39850646  0.96308720  0.28827096  1
  C  C331  1  0.29600420  0.65964100  0.48125010  1
  Zn  Zn332  1  0.38658209  0.67233674  0.37521129  1
  N  N333  1  0.42118579  0.75984904  0.35100000  1
  H  H334  1  0.37652991  0.92055104  0.42724893  1
  C  C335  1  0.48408563  0.58768840  0.34375688  1
  C  C336  1  0.44693737  0.55365276  0.03892504  1
  H  H337  1  0.35818936  0.94359461  0.31236056  1
  C  C338  1  0.44890563  0.85902863  0.31161895  1
  C  C339  1  0.40120935  0.81948432  0.34014953  1
  N  N340  1  0.30356540  0.64442758  0.35673383  1
  C  C341  1  0.44443906  0.86263792  0.11225280  1
  N  N342  1  0.49435902  0.81955091  0.30043686  1
  C  C343  1  0.42955810  0.97385933  0.10002399  1
  C  C344  1  0.47634706  0.75889292  0.32389993  1
  H  H345  1  0.27662596  0.95097669  0.47432316  1
  C  C346  1  0.26493617  0.64684833  0.41105402  1
  O  O347  1  0.47713269  0.81846587  0.10348319  1
  C  C348  1  0.42332265  0.51302736  0.17990636  1
  O  O349  1  0.27971345  0.95089047  0.28032969  1
  C  C350  1  0.44955925  0.76636789  0.49955483  1
  C  C351  1  0.28634953  0.62701025  0.29232776  1
  C  C352  1  0.49222361  0.92599655  0.00178685  1
  C  C353  1  0.26522499  0.95604907  0.21909088  1
  H  H354  1  0.41032023  0.74520602  0.04287563  1
  O  O355  1  0.39292764  0.71184947  0.01739013  1
  H  H356  1  0.28312629  0.50128603  0.31499236  1
  C  C357  1  0.27059553  0.55303327  0.10420607  1
  O  O358  1  0.31709082  0.54649499  0.92061234  1
  C  C359  1  0.27209865  0.92826908  0.62205624  1
  C  C360  1  0.30197558  0.92753808  0.95507038  1
  H  H361  1  0.45590156  0.56810671  0.98255662  1
  C  C362  1  0.32477462  0.82994368  0.57756458  1
  H  H363  1  0.39010705  0.96326305  0.95379552  1
  O  O364  1  0.28080125  0.79264083  0.55985297  1
  C  C365  1  0.43714762  0.71083484  0.53982096  1
  C  C366  1  0.48589378  0.68386772  0.57711236  1
  C  C367  1  0.26993828  0.76026115  0.89588345  1
  C  C368  1  0.30386458  0.72094399  0.94038311  1
  C  C369  1  0.36144424  0.74948893  0.96117641  1
  O  O370  1  0.38080647  0.79902582  0.94452334  1
  C  C371  1  0.33777978  0.65356859  0.59137932  1
  C  C372  1  0.49103411  0.77702822  0.71507400  1
  H  H373  1  0.30357471  0.75322518  0.54014022  1
  C  C374  1  0.32678712  0.66057413  0.72994559  1
  N  N375  1  0.28580606  0.64365475  0.55607186  1
  C  C376  1  0.35007226  0.63382283  0.66506253  1
  H  H377  1  0.28793036  0.51272455  0.91779224  1
  C  C378  1  0.34334146  0.97501948  0.84887431  1
  H  H379  1  0.31462712  0.65149583  0.84042261  1
  C  C380  1  0.37384647  0.56904462  0.66831756  1
  C  C381  1  0.37524766  0.68202940  0.53711535  1
  H  H382  1  0.30509833  0.70857903  0.73261753  1
  C  C383  1  0.35289954  0.56182109  0.79805670  1
  C  C384  1  0.34867257  0.95831494  0.92412445  1
  H  H385  1  0.28928592  0.80421568  0.87398389  1
  C  C386  1  0.32779809  0.62455393  0.79394633  1
  H  H387  1  0.37030752  0.80925418  0.57430373  1
  C  C388  1  0.35606150  0.52267359  0.86428059  1
  C  C389  1  0.28361614  0.66095720  0.96697645  1
  H  H390  1  0.38547154  0.54738693  0.61441865  1
  C  C391  1  0.27508211  0.98139747  0.67519819  1
  C  C392  1  0.37480112  0.53525623  0.73315828  1
  H  H393  1  0.46233028  0.73492212  0.70423288  1
  H  H394  1  0.36449863  0.91062840  0.62686647  1
  C  C395  1  0.32229100  0.89019358  0.60681090  1
  C  C396  1  0.25658532  0.89636955  0.98783738  1
  H  H397  1  0.48223698  0.63435869  0.60818033  1
  H  H398  1  0.47475583  0.82786039  0.61481352  1
  H  H399  1  0.30411141  0.96148246  0.81824245  1
  Zn  Zn400  1  0.49002467  0.71337086  0.85573325  1
  O  O401  1  0.40629725  0.50081715  0.53051817  1
  C  C402  1  0.49934833  0.98423590  0.96701077  1
  C  C403  1  0.49691123  0.82634969  0.66775104  1
  H  H404  1  0.26932501  0.51804110  0.74099428  1
  C  C405  1  0.63984946  0.14484075  0.14625111  1
  H  H406  1  0.73882134  0.17061965  0.28556700  1
  C  C407  1  0.59924475  0.40961641  0.21415802  1
  C  C408  1  0.62115848  0.21443278  0.16448385  1
  H  H409  1  0.54154307  0.10212412  0.33998385  1
  O  O410  1  0.55328031  0.43478653  0.22534557  1
  C  C411  1  0.67351189  0.09345361  0.27443033  1
  O  O412  1  0.64700981  0.44264476  0.21928399  1
  H  H413  1  0.66691731  0.33818181  0.35449906  1
  C  C414  1  0.53799650  0.06051266  0.44716131  1
  C  C415  1  0.56545925  0.23936556  0.14574938  1
  C  C416  1  0.65489202  0.30973961  0.21267727  1
  N  N417  1  0.63578638  0.12158967  0.07953363  1
  C  C418  1  0.66593567  0.24505194  0.19968783  1
  C  C419  1  0.69544086  0.38064569  0.36074054  1
  Zn  Zn420  1  0.71741807  0.41291223  0.14425154  1
  O  O421  1  0.57762554  0.27646597  0.38244391  1
  C  C422  1  0.66207855  0.06297109  0.08184309  1
  O  O423  1  0.55956159  0.20396236  0.29205958  1
  C  C424  1  0.68301987  0.43275222  0.40743957  1
  C  C425  1  0.64646805  0.03503337  0.29887275  1
  C  C426  1  0.55421556  0.30341686  0.16556466  1
  H  H427  1  0.53956279  0.03124497  0.20265758  1
  C  C428  1  0.55512404  0.45795321  0.05272321  1
  N  N429  1  0.68383091  0.04902267  0.15293163  1
  C  C430  1  0.60116822  0.33718641  0.19701025  1
  C  C431  1  0.66273873  0.09827027  0.19486027  1
  H  H432  1  0.53588590  0.20879907  0.11266915  1
  C  C433  1  0.70192482  0.05148059  0.40938861  1
  H  H434  1  0.56349403  0.24379505  0.27015798  1
  H  H435  1  0.51067191  0.32905627  0.15846716  1
  C  C436  1  0.54320356  0.11029817  0.39887022  1
  H  H437  1  0.68860316  0.34155252  0.23815021  1
  C  C438  1  0.55408096  0.17505840  0.42415996  1
  H  H439  1  0.64091543  0.43457487  0.43860127  1
  C  C440  1  0.71739142  0.03183709  0.48167795  1
  C  C441  1  0.66458962  0.02740215  0.01259425  1
  H  H442  1  0.70897812  0.22083018  0.20915963  1
  H  H443  1  0.73636813  0.13512765  0.03691090  1
  C  C444  1  0.55979803  0.19174786  0.49693475  1
  C  C445  1  0.50292084  0.01088103  0.22980222  1
  C  C446  1  0.56342874  0.22380023  0.36810251  1
  C  C447  1  0.50232725  0.42374110  0.04683187  1
  C  C448  1  0.66000479  0.01682805  0.36826701  1
  C  C449  1  0.71673331  0.12939651  0.31165162  1
  C  C450  1  0.72743162  0.10836433  0.38175644  1
  C  C451  1  0.65674829  0.48550020  0.01517115  1
  H  H452  1  0.55469831  0.49695286  0.09317968  1
  O  O453  1  0.50590191  0.12441084  0.16107188  1
  N  N454  1  0.68138318  0.48676434  0.08190953  1
  H  H455  1  0.62021004  0.00848332  0.26321225  1
  H  H456  1  0.53356942  0.01141925  0.42907188  1
  C  C457  1  0.72369447  0.48055288  0.41498532  1
  C  C458  1  0.74139054  0.35572799  0.00322580  1
  H  H459  1  0.70500947  0.39176842  0.00015892  1
  C  C460  1  0.60135758  0.44756809  0.00185676  1
  C  C461  1  0.57510592  0.03683110  0.64699046  1
  C  C462  1  0.61330989  0.09278676  0.67506573  1
  O  O463  1  0.72661446  0.28013366  0.76243190  1
  H  H464  1  0.60514203  0.07108734  0.85772740  1
  C  C465  1  0.56019181  0.14155440  0.54366563  1
  C  C466  1  0.62490261  0.30698584  0.83911006  1
  C  C467  1  0.53120405  0.26249912  0.80817871  1
  C  C468  1  0.63058268  0.26034396  0.89403176  1
  C  C469  1  0.54902777  0.07617084  0.52293460  1
  H  H470  1  0.57163885  0.34669360  0.75564563  1
  C  C471  1  0.59913538  0.40188613  0.94713229  1
  H  H472  1  0.63493003  0.39174383  0.91278387  1
  H  H473  1  0.66558249  0.07485320  0.57353002  1
  C  C474  1  0.69550039  0.15440742  0.63820412  1
  H  H475  1  0.57103725  0.11564636  0.77512871  1
  C  C476  1  0.64487679  0.18174753  0.74833040  1
  N  N477  1  0.51287115  0.11882410  0.92422269  1
  H  H478  1  0.53956504  0.32924768  0.90618748  1
  C  C479  1  0.62771277  0.03925439  0.89456674  1
  C  C480  1  0.54684946  0.36864325  0.94217346  1
  C  C481  1  0.60600268  0.13040045  0.73762602  1
  C  C482  1  0.72987722  0.24953280  0.70966242  1
  C  C483  1  0.53948222  0.22147097  0.86935450  1
  C  C484  1  0.57668621  0.30766417  0.79483309  1
  C  C485  1  0.65923280  0.10367727  0.62283221  1
  H  H486  1  0.66098471  0.34185801  0.83355435  1
  H  H487  1  0.66876759  0.26092107  0.93083018  1
  C  C488  1  0.68936122  0.19115112  0.69918767  1
  N  N489  1  0.63682556  0.06408364  0.96023685  1
  N  N490  1  0.59180630  0.21658081  0.90656728  1
  H  H491  1  0.64078160  0.21050138  0.79644511  1
  H  H492  1  0.51224131  0.47928049  0.60013294  1
  H  H493  1  0.61321043  0.47744618  0.86879546  1
  H  H494  1  0.56429244  0.15278850  0.60096646  1
  C  C495  1  0.50383348  0.46096609  0.65314447  1
  C  C496  1  0.54891207  0.02765655  0.57792896  1
  H  H497  1  0.73011703  0.16240566  0.59977180  1
  Zn  Zn498  1  0.60025567  0.15396856  0.98620103  1
  C  C499  1  0.50115090  0.37903036  0.99043320  1
  H  H500  1  0.56926536  0.24212009  0.51433918  1
  C  C501  1  0.50881904  0.49925340  0.71859876  1
  O  O502  1  0.62369310  0.88373099  0.21457066  1
  H  H503  1  0.64997319  0.86225204  0.18400973  1
  C  C504  1  0.55641400  0.67723853  0.28317303  1
  H  H505  1  0.57466597  0.71501539  0.25097026  1
  O  O506  1  0.72626085  0.81898557  0.07483289  1
  H  H507  1  0.61630225  0.59683805  0.25257719  1
  O  O508  1  0.53694761  0.64483158  0.01413853  1
  C  C509  1  0.70304544  0.55946214  0.22155281  1
  C  C510  1  0.52361985  0.62765994  0.09220261  1
  H  H511  1  0.51187499  0.83999328  0.46741320  1
  O  O512  1  0.62152440  0.87063939  0.33337537  1
  C  C513  1  0.66971757  0.75698489  0.34143653  1
  H  H514  1  0.54058725  0.91460413  0.24720480  1
  C  C515  1  0.67803759  0.74941775  0.20880640  1
  H  H516  1  0.67090295  0.79249871  0.38912273  1
  H  H517  1  0.55687213  0.52311534  0.32986819  1
  C  C518  1  0.69824010  0.55082090  0.08327473  1
  Zn  Zn519  1  0.65327285  0.69133786  0.02117779  1
  C  C520  1  0.57533791  0.61403468  0.27913879  1
  H  H521  1  0.70587367  0.50693610  0.22248589  1
  C  C522  1  0.69874957  0.65711247  0.28651418  1
  C  C523  1  0.69392867  0.68420763  0.21245840  1
  C  C524  1  0.70106396  0.58957109  0.15172565  1
  H  H525  1  0.67316256  0.77123137  0.15571006  1
  H  H526  1  0.70832728  0.67843643  0.40179108  1
  H  H527  1  0.64070902  0.97261407  0.39333561  1
  C  C528  1  0.63646762  0.84856338  0.27883788  1
  C  C529  1  0.71158361  0.53885110  0.46990862  1
  C  C530  1  0.66198392  0.78286376  0.27149454  1
  H  H531  1  0.71727600  0.56252728  0.33565459  1
  C  C532  1  0.71142434  0.59024516  0.28836243  1
  H  H533  1  0.70254134  0.93536636  0.03990592  1
  C  C534  1  0.50261323  0.69050384  0.31814509  1
  N  N535  1  0.69614123  0.65320275  0.14818045  1
  C  C536  1  0.69367934  0.69594196  0.34865108  1
  C  C537  1  0.54064685  0.57027443  0.31811263  1
  H  H538  1  0.54588508  0.74811448  0.02215575  1
  O  O539  1  0.54444030  0.65744598  0.13825019  1
  C  C540  1  0.50346483  0.79535857  0.49852870  1
  N  N541  1  0.69942744  0.58253620  0.01864171  1
  C  C542  1  0.50431975  0.94837643  0.25663939  1
  C  C543  1  0.69793780  0.62701077  0.79994690  1
  C  C544  1  0.55076567  0.77210402  0.53897974  1
  H  H545  1  0.63123455  0.89767332  0.51768805  1
  O  O546  1  0.54799393  0.84995921  0.87036201  1
  O  O547  1  0.66717721  0.53059590  0.50341684  1
  H  H548  1  0.57888067  0.69268892  0.60322876  1
  H  H549  1  0.61022489  0.64274180  0.85378587  1
  H  H550  1  0.73201771  0.96175567  0.53863374  1
  C  C551  1  0.66739020  0.59767595  0.67072748  1
  C  C552  1  0.54320927  0.84307752  0.80857986  1
  O  O553  1  0.69111038  0.64126986  0.64220005  1
  C  C554  1  0.63473475  0.51834872  0.84863437  1
  H  H555  1  0.65020531  0.56579155  0.57876959  1
  C  C556  1  0.54749328  0.93927338  0.64867193  1
  N  N557  1  0.53568310  0.96152779  0.57470485  1
  Zn  Zn558  1  0.62343898  0.96093351  0.77759826  1
  C  C559  1  0.54129672  0.71434871  0.57696307  1
  C  C560  1  0.67093161  0.55719452  0.89608334  1
  C  C561  1  0.56374478  0.72248731  0.79153988  1
  C  C562  1  0.58079520  0.68673876  0.86338509  1
  C  C563  1  0.63241224  0.53653402  0.77834854  1
  C  C564  1  0.66712917  0.58767996  0.75031952  1
  C  C565  1  0.52521944  0.77654695  0.77857687  1
  H  H566  1  0.59208771  0.71092061  0.74562915  1
  C  C567  1  0.64952659  0.97698463  0.87939123  1
  C  C568  1  0.67425245  0.54051698  0.97173470  1
  H  H569  1  0.68466929  0.88378720  0.91484833  1
  O  O570  1  0.65122102  0.79902014  0.55609775  1
  C  C571  1  0.67399297  0.93501797  0.92832770  1
  C  C572  1  0.69931918  0.61594004  0.87230884  1
  C  C573  1  0.53001740  0.88029928  0.68647286  1
  N  N574  1  0.55656457  0.88376984  0.75261967  1
  C  C575  1  0.64498496  0.75549516  0.93840980  1
  O  O576  1  0.68548372  0.77320043  0.90799669  1
  C  C577  1  0.59497423  0.71329588  0.93246804  1
  H  H578  1  0.54966018  0.92616572  0.53206638  1
  C  C579  1  0.60408512  0.81441131  0.53696353  1
  O  O580  1  0.63422268  0.55519310  0.62826256  1
  H  H581  1  0.72169825  0.66768334  0.77313396  1
  N  N582  1  0.57644865  0.98286133  0.68631039  1
  H  H583  1  0.72491607  0.64606947  0.90826686  1
  O  O584  1  0.69945574  0.96702917  0.50571201  1
  C  C585  1  0.52050265  0.56648822  0.71512811  1
  O  O586  1  0.52828443  0.62178157  0.70918491  1
  H  H587  1  0.52209053  0.98956724  0.91530562  1
  H  H588  1  0.60674587  0.50757220  0.74064462  1
  H  H589  1  0.50032566  0.50004933  0.83658661  1
  H  H590  1  0.51225695  0.88174425  0.98313292  1
  O  O591  1  0.59493826  0.87895545  0.50062366  1
  C  C592  1  0.68186038  0.96441302  0.99688502  1
  C  C593  1  0.56121744  0.70179167  0.99975362  1
  C  C594  1  0.94531172  0.42944019  0.27631363  1
  C  C595  1  0.80555189  0.15792372  0.11637924  1
  H  H596  1  0.86183692  0.39531806  0.12747534  1
  C  C597  1  0.82264368  0.24531815  0.34555972  1
  C  C598  1  0.85155185  0.19245060  0.48967363  1
  H  H599  1  0.83654504  0.43485794  0.31423537  1
  H  H600  1  0.97363064  0.27398173  0.24530140  1
  H  H601  1  0.95410489  0.45715820  0.16613266  1
  C  C602  1  0.79312702  0.43461154  0.33954184  1
  C  C603  1  0.95722368  0.36459803  0.30296228  1
  N  N604  1  0.94870455  0.42395623  0.20532849  1
  H  H605  1  0.78047378  0.19784010  0.13903873  1
  C  C606  1  0.80343799  0.30559517  0.16862224  1
  H  H607  1  0.97127846  0.19838431  0.32593161  1
  C  C608  1  0.86757901  0.42433811  0.07942042  1
  C  C609  1  0.79655585  0.30711600  0.08892332  1
  N  N610  1  0.95059078  0.26524412  0.11252702  1
  C  C611  1  0.88409055  0.39793405  0.01461759  1
  N  N612  1  0.77576673  0.35353065  0.20303719  1
  N  N613  1  0.83212646  0.25917033  0.21528330  1
  C  C614  1  0.77798326  0.12144536  0.06307671  1
  N  N615  1  0.98278329  0.03105305  0.15306594  1
  H  H616  1  0.90047342  0.28682798  0.41241874  1
  C  C617  1  0.94188289  0.08082190  0.15549279  1
  H  H618  1  0.93476389  0.44005559  0.41698348  1
  C  C619  1  0.80387414  0.06398603  0.03818813  1
  N  N620  1  0.96220315  0.32349828  0.24688310  1
  H  H621  1  0.89313694  0.11397265  0.42137622  1
  H  H622  1  0.95144114  0.18052346  0.05507905  1
  H  H623  1  0.77523472  0.31577181  0.40533563  1
  C  C624  1  0.85770582  0.18741318  0.35607572  1
  N  N625  1  0.86124872  0.14809609  0.13318791  1
  N  N626  1  0.95577933  0.12538774  0.20418814  1
  C  C627  1  0.81410073  0.28125741  0.28037309  1
  N  N628  1  0.75574336  0.35200851  0.07052164  1
  C  C629  1  0.92669300  0.48574728  0.38971203  1
  H  H630  1  0.87569811  0.16405016  0.30702401  1
  C  C631  1  0.94036177  0.31193491  0.43011733  1
  C  C632  1  0.88399973  0.09231867  0.11399024  1
  C  C633  1  0.78301377  0.33929206  0.27421446  1
  H  H634  1  0.89100483  0.34441776  0.00606846  1
  Zn  Zn635  1  0.91335395  0.21385475  0.19287557  1
  C  C636  1  0.87197736  0.16135903  0.42090622  1
  H  H637  1  0.88659447  0.00771970  0.04425188  1
  H  H638  1  0.85479837  0.22832302  0.05688400  1
  C  C639  1  0.81572141  0.24820785  0.47700551  1
  C  C640  1  0.80297936  0.27243467  0.41134753  1
  C  C641  1  0.97301494  0.35200536  0.37946630  1
  C  C642  1  0.85994913  0.04844137  0.06482532  1
  O  O643  1  0.90574365  0.02358816  0.36410177  1
  C  C644  1  0.82236505  0.26396774  0.03898135  1
  C  C645  1  0.95791032  0.36123138  0.18665573  1
  C  C646  1  0.97967688  0.03835875  0.45747581  1
  C  C647  1  0.96615726  0.23094220  0.05450863  1
  C  C648  1  0.96566944  0.32752216  0.11446696  1
  C  C649  1  0.75142924  0.38633381  0.32654592  1
  C  C650  1  0.92614335  0.00316064  0.43094578  1
  H  H651  1  0.75614288  0.13663352  0.41841030  1
  C  C652  1  0.77939275  0.48286022  0.38714625  1
  C  C653  1  0.85658828  0.49056517  0.08086480  1
  C  C654  1  0.93321889  0.49097057  0.31482669  1
  C  C655  1  0.99964339  0.35695411  0.06007278  1
  H  H656  1  0.99499366  0.08956452  0.35909200  1
  H  H657  1  0.77257149  0.00567147  0.30477354  1
  C  C658  1  0.96190478  0.30587362  0.49894650  1
  C  C659  1  0.81041002  0.27345014  0.96797680  1
  O  O660  1  0.96989781  0.05272541  0.95400860  1
  H  H661  1  0.79338218  0.47746270  0.80939314  1
  C  C662  1  0.87998926  0.11526192  0.75216751  1
  H  H663  1  0.92419900  0.19023203  0.90064364  1
  C  C664  1  0.87651424  0.47729166  0.59224030  1
  H  H665  1  0.79996931  0.27403462  0.52205432  1
  C  C666  1  0.87041062  0.16822302  0.70886413  1
  C  C667  1  0.82500141  0.43089337  0.60172361  1
  H  H668  1  0.92947791  0.39806793  0.54608862  1
  H  H669  1  0.89828997  0.08069164  0.86194810  1
  H  H670  1  0.86981238  0.06697848  0.73278753  1
  O  O671  1  0.83421697  0.37105272  0.59014890  1
  N  N672  1  0.90523940  0.32990675  0.89388254  1
  H  H673  1  0.85395996  0.17337060  0.65344833  1
  C  C674  1  0.88435101  0.43422507  0.94992322  1
  O  O675  1  0.77643573  0.44829041  0.61898638  1
  H  H676  1  0.83219683  0.24266113  0.92750208  1
  C  C677  1  0.76838735  0.31892639  0.94983238  1
  C  C678  1  0.89632165  0.12317667  0.82471469  1
  N  N679  1  0.87573540  0.22766720  0.73252873  1
  C  C680  1  0.90263315  0.30481870  0.82607177  1
  C  C681  1  0.90604040  0.18467565  0.84693872  1
  O  O682  1  0.86598319  0.17294307  0.54715309  1
  C  C683  1  0.88740386  0.47547403  0.78988459  1
  N  N684  1  0.89063112  0.35033516  0.77171192  1
  C  C685  1  0.89246747  0.39243253  0.88622146  1
  H  H686  1  0.93753086  0.27403196  0.53456313  1
  C  C687  1  0.89682269  0.23724108  0.80017647  1
  C  C688  1  0.88525403  0.40530271  0.81071338  1
  Zn  Zn689  1  0.84536994  0.31229071  0.67597998  1
  C  C690  1  0.92488923  0.44866487  0.55987623  1
  O  O691  1  0.76347489  0.26763301  0.65786772  1
  H  H692  1  0.98348395  0.48952342  0.79182744  1
  O  O693  1  0.75147254  0.06141460  0.51708296  1
  H  H694  1  0.75869471  0.32179532  0.89179339  1
  C  C695  1  0.97418161  0.49077140  0.55125096  1
  C  C696  1  0.99902214  0.02687958  0.52716308  1
  H  H697  1  0.78637021  0.03465847  0.99466401  1
  C  C698  1  0.99488100  0.25820825  0.99543101  1
  H  H699  1  0.79866000  0.60674780  0.16888762  1
  C  C700  1  0.94595719  0.68624570  0.13509730  1
  H  H701  1  0.77351398  0.86046764  0.34108166  1
  O  O702  1  0.86735190  0.70649415  0.39572392  1
  C  C703  1  0.98772531  0.63328758  0.10931879  1
  C  C704  1  0.77944184  0.89337845  0.22433194  1
  O  O705  1  0.86790861  0.65308583  0.49119075  1
  H  H706  1  0.93271195  0.54736335  0.21477002  1
  Zn  Zn707  1  0.85528695  0.78461217  0.08490332  1
  C  C708  1  0.83319783  0.52730031  0.14226588  1
  C  C709  1  0.83146536  0.93855935  0.19548716  1
  O  O710  1  0.82931405  0.59731661  0.13363165  1
  O  O711  1  0.89919115  0.96469776  0.46315437  1
  C  C712  1  0.77581731  0.96125453  0.33742364  1
  C  C713  1  0.89418441  0.59411315  0.38903694  1
  H  H714  1  0.77700005  0.96634988  0.39654586  1
  H  H715  1  0.89422304  0.53644471  0.48553405  1
  C  C716  1  0.90794720  0.60168247  0.31573511  1
  O  O717  1  0.87097324  0.96827178  0.21974461  1
  O  O718  1  0.91154360  0.70878277  0.08731555  1
  C  C719  1  0.92525440  0.54887752  0.27514982  1
  O  O720  1  0.94568257  0.70690648  0.19609310  1
  C  C721  1  0.77431296  0.90528602  0.30613233  1
  O  O722  1  0.81692142  0.50288202  0.19663563  1
  C  C723  1  0.87619208  0.65649840  0.42836491  1
  O  O724  1  0.85286822  0.91560091  0.10601472  1
  H  H725  1  0.89937263  0.64704344  0.28965201  1
  C  C726  1  0.81970510  0.87864602  0.07466830  1
  C  C727  1  0.90422536  0.53702305  0.42762585  1
  C  C728  1  0.98869598  0.62224923  0.03499183  1
  C  C729  1  0.76400600  0.84603756  0.10318673  1
  H  H730  1  0.80978266  0.52384958  0.39980785  1
  Zn  Zn731  1  0.75255927  0.98747931  0.18464919  1
  H  H732  1  0.98722716  0.85174864  0.00061375  1
  O  O733  1  0.75016463  0.57652465  0.48384281  1
  O  O734  1  0.75227835  0.84983212  0.19046224  1
  H  H735  1  0.87833161  0.98633829  0.35054607  1
  H  H736  1  0.86009882  0.58403922  0.02328009  1
  C  C737  1  0.86438724  0.53154844  0.01911407  1
  C  C738  1  0.82738944  0.85183357  0.00180913  1
  O  O739  1  0.84626789  0.89546994  0.75202450  1
  H  H740  1  0.80949870  0.73470220  0.74597300  1
  H  H741  1  0.84768827  0.88247761  0.90652784  1
  C  C742  1  0.91710492  0.57958914  0.60912777  1
  C  C743  1  0.82730017  0.57336754  0.77917348  1
  H  H744  1  0.84382929  0.75245594  0.87215843  1
  C  C745  1  0.86955109  0.67552881  0.74852954  1
  C  C746  1  0.87982833  0.87006650  0.95059725  1
  H  H747  1  0.92589799  0.67166994  0.84866039  1
  H  H748  1  0.96602324  0.97942153  0.71985667  1
  C  C749  1  0.93986307  0.51141088  0.78097380  1
  C  C750  1  0.93359167  0.71277619  0.88162619  1
  H  H751  1  0.97143909  0.60467991  0.74971334  1
  O  O752  1  0.80757969  0.69406606  0.76695551  1
  C  C753  1  0.88975997  0.75869234  0.89269520  1
  C  C754  1  0.91256900  0.80834200  0.93384321  1
  C  C755  1  0.96997753  0.55423658  0.57847921  1
  O  O756  1  0.90077190  0.71490776  0.72653015  1
  H  H757  1  0.83024668  0.55348655  0.65004289  1
  C  C758  1  0.87039091  0.53855830  0.62031749  1
  H  H759  1  0.78261066  0.59092185  0.77081443  1
  C  C760  1  0.83263729  0.50823732  0.79355752  1
  C  C761  1  0.93396769  0.57513731  0.76557956  1
  C  C762  1  0.87886804  0.60836000  0.76315195  1
  H  H763  1  0.91096172  0.63001398  0.62602294  1
  C  C764  1  0.97163448  0.81091118  0.95989072  1
  C  C765  1  0.99287947  0.72293068  0.90500437  1
  H  H766  1  0.78441205  0.84382336  0.97330238  1
  H  H767  1  0.98683675  0.88449329  0.64831722  1
  H  H768  1  0.90946167  0.90881087  0.96784627  1
  H  H769  1  0.97600798  0.99298937  0.56266232  1
  C  C770  1  0.88910704  0.90275793  0.77194725  1
  H  H771  1  0.88071784  0.53644537  0.90891547  1
  C  C772  1  0.87616464  0.50313493  0.95354750  1
  H  H773  1  0.95627420  0.64621226  0.99981217  1
