# generated using pymatgen
data_ZnH13C22N3O4
_symmetry_space_group_name_H-M   'P 1'
_cell_length_a   21.53742633
_cell_length_b   27.11608772
_cell_length_c   14.71907958
_cell_angle_alpha   90.00000000
_cell_angle_beta   90.00000000
_cell_angle_gamma   90.00000000
_symmetry_Int_Tables_number   1
_chemical_formula_structural   ZnH13C22N3O4
_chemical_formula_sum   'Zn18 H234 C396 N54 O72'
_cell_volume   8596.10057841
_cell_formula_units_Z   18
loop_
 _symmetry_equiv_pos_site_id
 _symmetry_equiv_pos_as_xyz
  1  'x, y, z'
loop_
 _atom_site_type_symbol
 _atom_site_label
 _atom_site_symmetry_multiplicity
 _atom_site_fract_x
 _atom_site_fract_y
 _atom_site_fract_z
 _atom_site_occupancy
  O  O0  1  0.11525888  0.08166146  0.28484665  1
  H  H1  1  0.15584444  0.12199123  0.13695579  1
  C  C2  1  0.16542268  0.09384031  0.30738655  1
  H  H3  1  0.09370332  0.22332901  0.20507457  1
  C  C4  1  0.19715800  0.13858752  0.17182254  1
  H  H5  1  0.15881151  0.05614519  0.41299213  1
  C  C6  1  0.21247523  0.02694007  0.14310290  1
  C  C7  1  0.21093959  0.12642000  0.26170551  1
  O  O8  1  0.23093379  0.22893015  0.41942640  1
  O  O9  1  0.19515632  0.07372455  0.39527424  1
  H  H10  1  0.19631832  0.21903899  0.37669658  1
  H  H11  1  0.21922001  0.18325231  0.05665286  1
  H  H12  1  0.21798927  0.04748176  0.20691628  1
  O  O13  1  0.11782554  0.23399033  0.25886348  1
  C  C14  1  0.23210189  0.17245643  0.12424919  1
  H  H15  1  0.11054661  0.01430367  0.14974767  1
  O  O16  1  0.00743355  0.23450642  0.43983316  1
  C  C17  1  0.15650405  0.00713483  0.11420505  1
  C  C18  1  0.02769761  0.10109468  0.00635699  1
  H  H19  1  0.06220168  0.13018759  0.01671842  1
  C  C20  1  0.21028118  0.49709504  0.42477060  1
  H  H21  1  0.12529767  0.48176044  0.28644947  1
  C  C22  1  0.15165031  0.31805441  0.36902959  1
  C  C23  1  0.18959761  0.36368160  0.23204842  1
  H  H24  1  0.22271766  0.43581710  0.25693791  1
  H  H25  1  0.08705029  0.44401094  0.02930063  1
  H  H26  1  0.19706511  0.36515105  0.15780337  1
  O  O27  1  0.04103149  0.38223273  0.12903027  1
  H  H28  1  0.04875572  0.37294599  0.46069393  1
  C  C29  1  0.22772366  0.36234501  0.00419637  1
  O  O30  1  0.15400173  0.28172220  0.13427754  1
  C  C31  1  0.16516860  0.31977581  0.27485998  1
  C  C32  1  0.17139224  0.35534402  0.42649609  1
  O  O33  1  0.04705926  0.45655422  0.05362173  1
  C  C34  1  0.19768286  0.39853018  0.38792413  1
  C  C35  1  0.01958167  0.40632928  0.07158690  1
  N  N36  1  0.18104664  0.44553356  0.00129024  1
  O  O37  1  0.01117247  0.30845937  0.36445466  1
  C  C38  1  0.02167480  0.27819597  0.44117965  1
  C  C39  1  0.20236256  0.44385793  0.44428744  1
  C  C40  1  0.20997553  0.40013616  0.29012365  1
  C  C41  1  0.14857394  0.27695787  0.21357106  1
  C  C42  1  0.22277835  0.45841312  0.06242169  1
  H  H43  1  0.12728582  0.28467887  0.39141982  1
  H  H44  1  0.21840231  0.49760997  0.08036780  1
  N  N45  1  0.18662604  0.06338006  0.82190219  1
  H  H46  1  0.14323941  0.07455475  0.81849128  1
  H  H47  1  0.10152431  0.13673448  0.84850058  1
  C  C48  1  0.13778507  0.16176127  0.87358015  1
  C  C49  1  0.20074558  0.14702328  0.88726256  1
  C  C50  1  0.11719793  0.21037021  0.88595335  1
  O  O51  1  0.04532389  0.18642028  0.72896900  1
  H  H52  1  0.19567406  0.16389876  0.66601978  1
  C  C53  1  0.22539344  0.09424655  0.86487952  1
  H  H54  1  0.06976391  0.22606520  0.86787471  1
  C  C55  1  0.22870311  0.22290684  0.92875963  1
  N  N56  1  0.24591813  0.17741836  0.91332373  1
  H  H57  1  0.05935937  0.22553301  0.58694870  1
  C  C58  1  0.24353212  0.17760430  0.65428429  1
  C  C59  1  0.21281094  0.20698542  0.50208697  1
  O  O60  1  0.15958466  0.19829459  0.51195138  1
  C  C61  1  0.16685598  0.24043548  0.91187621  1
  C  C62  1  0.00736084  0.01402525  0.97458318  1
  Zn  Zn63  1  0.19474662  0.00582774  0.71662354  1
  C  C64  1  0.05001109  0.05501360  0.98915778  1
  H  H65  1  0.09975577  0.04504667  0.99641510  1
  C  C66  1  0.22274971  0.49999118  0.66558745  1
  C  C67  1  0.07716390  0.49976130  0.72443630  1
  H  H68  1  0.16385803  0.35180473  0.50107912  1
  C  C69  1  0.06113754  0.26642809  0.59612693  1
  C  C70  1  0.08851390  0.28707624  0.67254599  1
  C  C71  1  0.13581277  0.38643773  0.90148273  1
  C  C72  1  0.04686370  0.29884566  0.52534899  1
  H  H73  1  0.09676480  0.26597794  0.73399901  1
  N  N74  1  0.10449457  0.42931247  0.87370212  1
  C  C75  1  0.09201968  0.33972355  0.68384648  1
  C  C76  1  0.22434762  0.46222438  0.73345900  1
  H  H77  1  0.16074551  0.27860821  0.93126969  1
  C  C78  1  0.07657184  0.37178595  0.60525739  1
  H  H79  1  0.20856929  0.42373021  0.72346650  1
  C  C80  1  0.20189546  0.48531714  0.56872241  1
  C  C81  1  0.05518478  0.35207908  0.52404200  1
  N  N82  1  0.19750679  0.44027219  0.53192997  1
  N  N83  1  0.13329019  0.34783861  0.84371845  1
  C  C84  1  0.07697079  0.41341461  0.79553637  1
  C  C85  1  0.24567238  0.47576075  0.82126077  1
  H  H86  1  0.08183049  0.41188541  0.62068054  1
  C  C87  1  0.18396031  0.39647507  0.97378827  1
  C  C88  1  0.09667806  0.36173522  0.77335865  1
  C  C89  1  0.04835200  0.45260394  0.74234628  1
  H  H90  1  0.22585650  0.32435668  0.98468536  1
  C  C91  1  0.20278594  0.59302672  0.06195001  1
  C  C92  1  0.19838513  0.56709576  0.15572506  1
  C  C93  1  0.15377295  0.53296986  0.18298323  1
  C  C94  1  0.20825924  0.52274788  0.33332784  1
  C  C95  1  0.20263328  0.68117076  0.45426517  1
  H  H96  1  0.16292543  0.72234910  0.07983632  1
  N  N97  1  0.18389833  0.72888488  0.47121219  1
  C  C98  1  0.19990946  0.74082858  0.11529110  1
  C  C99  1  0.16169524  0.51029343  0.26834253  1
  H  H100  1  0.11230622  0.52477727  0.13863721  1
  C  C101  1  0.24376857  0.57954104  0.22167249  1
  O  O102  1  0.23757870  0.62699771  0.05201891  1
  Zn  Zn103  1  0.12382224  0.58092323  0.49026678  1
  O  O104  1  0.03291591  0.57396715  0.49243877  1
  H  H105  1  0.22689557  0.82178704  0.29483010  1
  H  H106  1  0.12188759  0.96454289  0.41549929  1
  H  H107  1  0.02945941  0.90013085  0.19328393  1
  O  O108  1  0.07676462  0.76966039  0.18519676  1
  C  C109  1  0.12592026  0.94492623  0.35208748  1
  C  C110  1  0.00239957  0.95045913  0.34441820  1
  C  C111  1  0.12180610  0.78258820  0.22412169  1
  C  C112  1  0.18393847  0.92882313  0.32063368  1
  C  C113  1  0.18646475  0.90871050  0.23185385  1
  C  C114  1  0.24576617  0.89205754  0.18863102  1
  C  C115  1  0.18514175  0.77071428  0.19338059  1
  C  C116  1  0.23547705  0.79452989  0.23606352  1
  C  C117  1  0.06932620  0.93654225  0.30966038  1
  O  O118  1  0.11672836  0.81288619  0.31018386  1
  H  H119  1  0.22809225  0.93423246  0.36350096  1
  C  C120  1  0.15648055  0.97868693  0.03473451  1
  H  H121  1  0.12476532  0.88044970  0.11537444  1
  H  H122  1  0.07603697  0.82593321  0.29848803  1
  C  C123  1  0.12943503  0.89589569  0.18663885  1
  H  H124  1  0.19414286  0.75754544  0.43213302  1
  C  C125  1  0.07319839  0.90991489  0.22701081  1
  H  H126  1  0.10693968  0.80657074  0.43886607  1
  C  C127  1  0.12274111  0.65774649  0.66410035  1
  C  C128  1  0.15495774  0.64347620  0.74364679  1
  C  C129  1  0.06537350  0.60288508  0.80444888  1
  C  C130  1  0.12747704  0.61543608  0.81234081  1
  C  C131  1  0.15393772  0.67957824  0.57937164  1
  C  C132  1  0.05940308  0.64311970  0.65584164  1
  H  H133  1  0.20515172  0.64924371  0.75622934  1
  H  H134  1  0.15269756  0.59957602  0.87410163  1
  O  O135  1  0.05686641  0.56041269  0.94374527  1
  H  H136  1  0.08822968  0.56152976  0.62811567  1
  C  C137  1  0.06306811  0.52685744  0.64796598  1
  H  H138  1  0.06785067  0.69576566  0.86189129  1
  N  N139  1  0.18135023  0.64654829  0.51840957  1
  H  H140  1  0.11800685  0.51134672  0.77192804  1
  N  N141  1  0.24162295  0.54580970  0.67641777  1
  C  C142  1  0.02571628  0.57240007  0.87339144  1
  C  C143  1  0.06110196  0.73523489  0.87952591  1
  C  C144  1  0.15068528  0.72996941  0.54867808  1
  Zn  Zn145  1  0.11825192  0.50314603  0.94799084  1
  C  C146  1  0.03061123  0.61579103  0.72725157  1
  H  H147  1  0.03242960  0.65892187  0.59984838  1
  O  O148  1  0.17056980  0.57726802  0.99581574  1
  C  C149  1  0.01009195  0.51230111  0.59822658  1
  N  N150  1  0.20261519  0.52330554  0.50199638  1
  H  H151  1  0.18703164  0.86108495  0.56247530  1
  C  C152  1  0.00449851  0.75983676  0.85945678  1
  C  C153  1  0.23194190  0.87631797  0.57746254  1
  C  C154  1  0.10873955  0.76335036  0.92166857  1
  C  C155  1  0.10174684  0.95274386  0.98991306  1
  C  C156  1  0.12080420  0.77810347  0.57716367  1
  H  H157  1  0.15767374  0.75024179  0.93483080  1
  Zn  Zn158  1  0.18748933  0.85652727  0.99667257  1
  H  H159  1  0.09534358  0.84817603  0.77478220  1
  H  H160  1  0.12330570  0.75982251  0.72104104  1
  C  C161  1  0.00363037  0.80964220  0.88387090  1
  C  C162  1  0.05325331  0.91832280  0.66908223  1
  C  C163  1  0.05380651  0.88625038  0.95450053  1
  C  C164  1  0.08177073  0.85996693  0.54723032  1
  H  H165  1  0.06829508  0.88978536  0.50187833  1
  O  O166  1  0.02209563  0.94360602  0.61611744  1
  C  C167  1  0.03577319  0.96522990  0.96715906  1
  C  C168  1  0.05523415  0.83052086  0.92629955  1
  C  C169  1  0.11597338  0.78878917  0.67340638  1
  O  O170  1  0.15094519  0.96966611  0.53725046  1
  N  N171  1  0.11027932  0.90443213  0.98068857  1
  N  N172  1  0.11283899  0.81130905  0.94764378  1
  C  C173  1  0.08407676  0.87047797  0.63833986  1
  C  C174  1  0.18904744  0.96264933  0.59742677  1
  C  C175  1  0.10207337  0.83511341  0.70347008  1
  H  H176  1  0.20449680  0.94936662  0.91511252  1
  C  C177  1  0.10292585  0.81484411  0.51272603  1
  C  C178  1  0.20946998  0.97236183  0.97966549  1
  N  N179  1  0.00833853  0.92143156  0.94940567  1
  O  O180  1  0.05772552  0.92545466  0.75025740  1
  C  C181  1  0.22825047  0.92294337  0.63394154  1
  H  H182  1  0.23213613  0.83754391  0.83011020  1
  H  H183  1  0.38337000  0.13075241  0.11892828  1
  C  C184  1  0.43070068  0.13394968  0.08766636  1
  C  C185  1  0.30437183  0.17404754  0.25766498  1
  C  C186  1  0.28793110  0.19102010  0.16780066  1
  H  H187  1  0.34140193  0.18896337  0.29389228  1
  C  C188  1  0.32772229  0.03835641  0.12103453  1
  O  O189  1  0.33262240  0.06154645  0.18770785  1
  O  O190  1  0.38534044  0.03167409  0.06130157  1
  C  C191  1  0.26679348  0.02125146  0.08951475  1
  C  C192  1  0.33197479  0.22201425  0.11146369  1
  H  H193  1  0.39169651  0.13015483  0.42090791  1
  H  H194  1  0.30862700  0.04634641  0.36771796  1
  C  C195  1  0.43504848  0.13418925  0.46493624  1
  H  H196  1  0.27314171  0.13065169  0.37859761  1
  H  H197  1  0.49209514  0.12689749  0.20781253  1
  C  C198  1  0.48862059  0.13075083  0.13296810  1
  N  N199  1  0.33873075  0.22428409  0.01923513  1
  N  N200  1  0.42779134  0.14591749  0.00316815  1
  C  C201  1  0.32236178  0.00748079  0.37631535  1
  C  C202  1  0.26722593  0.14253320  0.30634539  1
  O  O203  1  0.49512830  0.13348962  0.33461369  1
  C  C204  1  0.49355989  0.13362927  0.41601792  1
  H  H205  1  0.32355906  0.24764264  0.49232517  1
  C  C206  1  0.39465122  0.39770140  0.27183627  1
  C  C207  1  0.37234386  0.27729542  0.24573691  1
  C  C208  1  0.38198769  0.44578477  0.41348045  1
  H  H209  1  0.27022518  0.29023854  0.24101931  1
  C  C210  1  0.48768814  0.41656946  0.37124251  1
  H  H211  1  0.33209050  0.44676794  0.40242088  1
  H  H212  1  0.41144993  0.34019408  0.19767366  1
  C  C213  1  0.37083766  0.26044840  0.14528530  1
  O  O214  1  0.43748680  0.36923396  0.20466373  1
  C  C215  1  0.30886935  0.31103142  0.36975529  1
  H  H216  1  0.46882115  0.26179520  0.27949632  1
  N  N217  1  0.39723665  0.28920782  0.07828744  1
  H  H218  1  0.46935256  0.45426859  0.17272741  1
  H  H219  1  0.45954244  0.29598604  0.43237524  1
  C  C220  1  0.42538621  0.27855591  0.30341844  1
  C  C221  1  0.27168958  0.37861163  0.06618996  1
  C  C222  1  0.42242296  0.42078202  0.35175423  1
  C  C223  1  0.36121558  0.31290131  0.42660733  1
  O  O224  1  0.34046262  0.39863432  0.25749226  1
  C  C225  1  0.41834387  0.29699228  0.38957700  1
  H  H226  1  0.31089627  0.44217921  0.13562646  1
  C  C227  1  0.40383334  0.47009222  0.49084384  1
  H  H228  1  0.26230906  0.32264188  0.39243674  1
  O  O229  1  0.38975895  0.44670083  0.03586098  1
  C  C230  1  0.27363585  0.42842147  0.09025510  1
  C  C231  1  0.31295871  0.29203148  0.28301178  1
  Zn  Zn232  1  0.41099611  0.36880295  0.06183821  1
  H  H233  1  0.30825700  0.35295819  0.08979830  1
  C  C234  1  0.37692128  0.26580345  0.00220449  1
  C  C235  1  0.48943973  0.48887285  0.04253202  1
  C  C236  1  0.42060341  0.03013002  0.81905885  1
  C  C237  1  0.37233845  0.03641901  0.88522122  1
  N  N238  1  0.41108295  0.16797305  0.83536005  1
  C  C239  1  0.41083755  0.17334290  0.74390894  1
  Zn  Zn240  1  0.33722375  0.15519215  0.92756424  1
  C  C241  1  0.30625176  0.04970647  0.85451327  1
  N  N242  1  0.28745826  0.09286817  0.88759731  1
  C  C243  1  0.47079147  0.15965551  0.70323820  1
  C  C244  1  0.35325082  0.19124770  0.69328963  1
  C  C245  1  0.29377612  0.17026170  0.71238600  1
  C  C246  1  0.47086927  0.15691887  0.85514362  1
  H  H247  1  0.28766265  0.15151357  0.78116259  1
  H  H248  1  0.38206105  0.13415473  0.58714538  1
  C  C249  1  0.42882230  0.13619576  0.55497577  1
  C  C250  1  0.36941281  0.21594110  0.60968954  1
  C  C251  1  0.48354644  0.02570182  0.83404497  1
  H  H252  1  0.41151694  0.03089674  0.74803866  1
  C  C253  1  0.31885770  0.22651155  0.55384119  1
  O  O254  1  0.32772450  0.05917481  0.53801344  1
  C  C255  1  0.27853707  0.01507208  0.79005185  1
  C  C256  1  0.48267670  0.14799575  0.60964085  1
  C  C257  1  0.48166426  0.14956106  0.95672897  1
  C  C258  1  0.38138165  0.03369840  0.97968127  1
  C  C259  1  0.35807276  0.02196800  0.53518668  1
  H  H260  1  0.49482993  0.23309316  0.79470804  1
  H  H261  1  0.34817745  0.24040745  0.82548896  1
  H  H262  1  0.41535199  0.23318661  0.59838881  1
  O  O263  1  0.39717950  0.00968392  0.59358234  1
  C  C264  1  0.25979434  0.20521382  0.57671298  1
  H  H265  1  0.26790530  0.24599511  0.94634019  1
  H  H266  1  0.47308642  0.02637179  0.98305027  1
  O  O267  1  0.41819563  0.49106855  0.91901466  1
  H  H268  1  0.47868127  0.30358541  0.96526548  1
  C  C269  1  0.34264695  0.31226761  0.76071887  1
  C  C270  1  0.36079142  0.33584059  0.52135782  1
  C  C271  1  0.48807633  0.31216992  0.73675314  1
  C  C272  1  0.38514697  0.37487873  0.86284414  1
  O  O273  1  0.41032418  0.34230887  0.55707573  1
  H  H274  1  0.32382950  0.30174229  0.69219352  1
  H  H275  1  0.44757196  0.32634539  0.77490784  1
  N  N276  1  0.39139609  0.34516750  0.92980904  1
  C  C277  1  0.35847699  0.36214498  0.77578816  1
  C  C278  1  0.37808332  0.29657259  0.91572353  1
  H  H279  1  0.37345196  0.49344323  0.53601576  1
  C  C280  1  0.35669976  0.27916775  0.83075421  1
  H  H281  1  0.35556583  0.38940281  0.71972601  1
  H  H282  1  0.39557833  0.41135190  0.88910977  1
  O  O283  1  0.31171367  0.34484039  0.56335699  1
  C  C284  1  0.42869717  0.47396594  0.99384167  1
  H  H285  1  0.25168819  0.45223350  0.88127231  1
  C  C286  1  0.46953199  0.46769399  0.50536173  1
  H  H287  1  0.43108524  0.65005094  0.33571629  1
  H  H288  1  0.36604156  0.70355590  0.23541506  1
  C  C289  1  0.37982856  0.65366861  0.34604869  1
  C  C290  1  0.35340406  0.62652071  0.41877141  1
  C  C291  1  0.34465537  0.68284040  0.28764842  1
  C  C292  1  0.40564471  0.71922583  0.03568501  1
  N  N293  1  0.47061767  0.72033583  0.03187056  1
  N  N294  1  0.29544377  0.62930237  0.44319806  1
  H  H295  1  0.27118061  0.71011060  0.02884570  1
  C  C296  1  0.28540660  0.69017600  0.32573263  1
  C  C297  1  0.26099992  0.73332552  0.08614818  1
  H  H298  1  0.27763189  0.60728689  0.20021815  1
  H  H299  1  0.29000336  0.57397298  0.34999071  1
  H  H300  1  0.25900642  0.72092017  0.29691118  1
  C  C301  1  0.26239040  0.66708464  0.40604280  1
  H  H302  1  0.37581268  0.59617975  0.45593741  1
  H  H303  1  0.49874550  0.52514075  0.40406536  1
  C  C304  1  0.25190821  0.56021598  0.30718812  1
  N  N305  1  0.42696511  0.77570731  0.13728356  1
  C  C306  1  0.26479400  0.99159419  0.00845320  1
  C  C307  1  0.31100885  0.75907216  0.12961056  1
  N  N308  1  0.25069105  0.87730314  0.10073017  1
  Zn  Zn309  1  0.43251962  0.84925029  0.19329515  1
  C  C310  1  0.31595404  0.87870231  0.08627939  1
  C  C311  1  0.33232472  0.80579842  0.46513309  1
  C  C312  1  0.37664866  0.75119038  0.09884712  1
  C  C313  1  0.48204713  0.75746060  0.09449154  1
  C  C314  1  0.49145965  0.92316696  0.33287388  1
  C  C315  1  0.29610504  0.79146326  0.20653065  1
  H  H316  1  0.38283082  0.86767253  0.38612402  1
  C  C317  1  0.33101492  0.92298038  0.31331895  1
  C  C318  1  0.37837168  0.78163358  0.40681875  1
  C  C319  1  0.34991742  0.98527012  0.45226175  1
  C  C320  1  0.31228828  0.97475735  0.30556177  1
  O  O321  1  0.49357978  0.96640592  0.34592046  1
  H  H322  1  0.28826915  0.98639364  0.24173338  1
  O  O323  1  0.40580980  0.77228757  0.33977393  1
  C  C324  1  0.30840529  0.90021743  0.22242634  1
  C  C325  1  0.37013451  0.93773489  0.46457341  1
  C  C326  1  0.36418504  0.90588576  0.38698357  1
  N  N327  1  0.35380289  0.89299295  0.15807041  1
  H  H328  1  0.33673749  0.81207275  0.22562120  1
  O  O329  1  0.47868804  0.90588928  0.25280652  1
  C  C330  1  0.32735080  0.67155390  0.77719116  1
  C  C331  1  0.34436359  0.63782895  0.84536388  1
  C  C332  1  0.36365235  0.65245634  0.92860190  1
  H  H333  1  0.35242322  0.59717905  0.82599725  1
  H  H334  1  0.43682487  0.55668195  0.62901430  1
  C  C335  1  0.30839601  0.66497141  0.67541940  1
  C  C336  1  0.36843159  0.70372732  0.95292467  1
  O  O337  1  0.31837576  0.62453259  0.63716166  1
  C  C338  1  0.46168535  0.63523305  0.65014952  1
  H  H339  1  0.45206194  0.64507168  0.58074978  1
  C  C340  1  0.48437968  0.66940184  0.71653244  1
  C  C341  1  0.45177957  0.58583005  0.67468833  1
  O  O342  1  0.29180113  0.69974648  0.63107615  1
  C  C343  1  0.49355016  0.72458056  0.69766953  1
  C  C344  1  0.32461963  0.72108779  0.80267910  1
  H  H345  1  0.38600481  0.62541555  0.97480476  1
  C  C346  1  0.34998778  0.73817059  0.88672769  1
  C  C347  1  0.46494648  0.57597737  0.76600922  1
  H  H348  1  0.26595949  0.60065384  0.75975794  1
  C  C349  1  0.25738089  0.56001657  0.75747412  1
  C  C350  1  0.26061883  0.52584385  0.82984433  1
  H  H351  1  0.46490455  0.53731218  0.78256064  1
  H  H352  1  0.27252728  0.53959688  0.90008720  1
  H  H353  1  0.30703029  0.74736734  0.75343123  1
  Zn  Zn354  1  0.25024157  0.58771791  0.54732690  1
  C  C355  1  0.48741538  0.61042596  0.82988389  1
  N  N356  1  0.49266267  0.65682719  0.80617625  1
  H  H357  1  0.25442707  0.88986915  0.51436881  1
  H  H358  1  0.43047468  0.86640016  0.98801630  1
  Zn  Zn359  1  0.37978037  0.75091899  0.55487299  1
  N  N360  1  0.48736569  0.75128966  0.62116819  1
  O  O361  1  0.26937650  0.82736109  0.60875543  1
  H  H362  1  0.44347073  0.84768846  0.81449406  1
  C  C363  1  0.27852548  0.92817955  0.70083731  1
  H  H364  1  0.33783794  0.83130121  0.74241603  1
  H  H365  1  0.38827937  0.92624703  0.53223257  1
  N  N366  1  0.27805905  0.85252948  0.94379541  1
  H  H367  1  0.30833215  0.98271193  0.97034170  1
  C  C368  1  0.38904912  0.85735712  0.94857415  1
  C  C369  1  0.28076349  0.84120514  0.85871064  1
  C  C370  1  0.28891696  0.96969505  0.75640294  1
  C  C371  1  0.30445534  0.80901046  0.54921867  1
  H  H372  1  0.31391945  0.89778709  0.70070130  1
  H  H373  1  0.35163669  0.77745153  0.90347091  1
  C  C374  1  0.33138743  0.86391082  0.98906384  1
  C  C375  1  0.34015688  0.83786378  0.81518691  1
  C  C376  1  0.39877547  0.84635307  0.85357643  1
  H  H377  1  0.59041872  0.12643747  0.12972534  1
  C  C378  1  0.54652377  0.13443564  0.09101044  1
  O  O379  1  0.67166756  0.10080598  0.41016494  1
  H  H380  1  0.59441073  0.12751428  0.44859951  1
  H  H381  1  0.55128734  0.20540478  0.25146444  1
  H  H382  1  0.53904378  0.20711818  0.42547499  1
  O  O383  1  0.68488381  0.12472002  0.11078706  1
  H  H384  1  0.68813141  0.11012513  0.05439473  1
  C  C385  1  0.70995191  0.01982472  0.40680288  1
  C  C386  1  0.55777185  0.23924408  0.38771647  1
  H  H387  1  0.72559717  0.11598793  0.13244641  1
  C  C388  1  0.71332293  0.07308850  0.37923800  1
  C  C389  1  0.54853537  0.13075632  0.47914457  1
  H  H390  1  0.62138533  0.02245690  0.47524049  1
  C  C391  1  0.56326873  0.23975343  0.29238448  1
  H  H392  1  0.72803259  0.16399352  0.39508987  1
  H  H393  1  0.58168861  0.04935016  0.01707800  1
  N  N394  1  0.73086747  0.35474866  0.17417496  1
  H  H395  1  0.59400110  0.28792493  0.17380504  1
  C  C396  1  0.61249943  0.49677341  0.10590825  1
  N  N397  1  0.68762573  0.43652158  0.12914653  1
  C  C398  1  0.67464408  0.43286977  0.49933581  1
  C  C399  1  0.56395123  0.47905054  0.16445634  1
  C  C400  1  0.74236041  0.30861958  0.19745311  1
  C  C401  1  0.57893015  0.28223195  0.43108159  1
  H  H402  1  0.68259382  0.31960286  0.04918647  1
  H  H403  1  0.70385794  0.29491927  0.24082251  1
  C  C404  1  0.58841676  0.28242073  0.24977483  1
  N  N405  1  0.60260102  0.32264571  0.29369609  1
  H  H406  1  0.52233983  0.39751421  0.32489886  1
  C  C407  1  0.59882318  0.32478154  0.38422472  1
  H  H408  1  0.58217027  0.46197361  0.22720156  1
  O  O409  1  0.56031337  0.29926942  0.05465399  1
  Zn  Zn410  1  0.64531725  0.38715531  0.22567151  1
  C  C411  1  0.68106892  0.48711522  0.11492733  1
  C  C412  1  0.50327295  0.47621481  0.13073116  1
  C  C413  1  0.66528989  0.44372577  0.40516449  1
  C  C414  1  0.62135092  0.37387603  0.42474445  1
  C  C415  1  0.50768550  0.43563658  0.45224797  1
  N  N416  1  0.63649652  0.40515402  0.35761783  1
  C  C417  1  0.69341532  0.48944034  0.35924792  1
  H  H418  1  0.55762989  0.43135445  0.48144579  1
  Zn  Zn419  1  0.60542537  0.16694767  0.77165189  1
  C  C420  1  0.61986512  0.04235463  0.87881249  1
  N  N421  1  0.65765873  0.19537378  0.64637975  1
  C  C422  1  0.61591630  0.02457381  0.78784838  1
  C  C423  1  0.68951763  0.15495341  0.86010670  1
  C  C424  1  0.67789395  0.06131513  0.92473156  1
  C  C425  1  0.70571863  0.11121099  0.90943456  1
  C  C426  1  0.71589274  0.19948463  0.84812700  1
  C  C427  1  0.56928182  0.03933413  0.94255977  1
  C  C428  1  0.71083943  0.18080221  0.60096718  1
  H  H429  1  0.67611824  0.08736370  0.68111964  1
  C  C430  1  0.72022672  0.08866603  0.64531805  1
  H  H431  1  0.58790536  0.13950246  0.61119120  1
  C  C432  1  0.54395468  0.13634779  0.57242795  1
  H  H433  1  0.58289651  0.14090398  0.95069086  1
  N  N434  1  0.71167171  0.03049144  0.97893178  1
  O  O435  1  0.61940398  0.01150262  0.71131632  1
  H  H436  1  0.68958935  0.23130248  0.81349194  1
  C  C437  1  0.50741854  0.02706204  0.92491808  1
  H  H438  1  0.74041729  0.01139611  0.68519717  1
  N  N439  1  0.50848953  0.14982805  0.77788201  1
  H  H440  1  0.51654379  0.02154996  0.77612514  1
  C  C441  1  0.72152238  0.22066647  0.53881803  1
  C  C442  1  0.74334848  0.13336344  0.60246901  1
  C  C443  1  0.64061313  0.24233550  0.61263458  1
  N  N444  1  0.56095310  0.24322067  0.72378700  1
  C  C445  1  0.54192835  0.14130156  0.99421652  1
  C  C446  1  0.50817799  0.26345923  0.74859156  1
  N  N447  1  0.65381242  0.38457499  0.50833878  1
  C  C448  1  0.50670972  0.49498764  0.57633044  1
  H  H449  1  0.59444772  0.33943092  0.57720786  1
  C  C450  1  0.73290670  0.33020197  0.92835341  1
  H  H451  1  0.67215803  0.34318041  0.70371336  1
  C  C452  1  0.56524367  0.49996068  0.69284315  1
  C  C453  1  0.73217340  0.33407749  0.82991057  1
  C  C454  1  0.62145090  0.32131670  0.83076034  1
  H  H455  1  0.71793345  0.45144004  0.96082809  1
  H  H456  1  0.63813342  0.38801765  0.90956227  1
  C  C457  1  0.63657992  0.42498350  0.88344594  1
  C  C458  1  0.57206591  0.32030074  0.63097106  1
  H  H459  1  0.56354842  0.40928533  0.78471923  1
  H  H460  1  0.57749201  0.28297366  0.50610977  1
  O  O461  1  0.51029400  0.31353673  0.92080792  1
  C  C462  1  0.51884111  0.34084558  0.66952669  1
  H  H463  1  0.67138781  0.41496869  0.68312628  1
  C  C464  1  0.58841589  0.27060720  0.65123274  1
  H  H465  1  0.57353812  0.32388889  0.80236551  1
  C  C466  1  0.67389865  0.33288241  0.78089518  1
  C  C467  1  0.70445548  0.46011335  0.57311653  1
  C  C468  1  0.67959228  0.46083602  0.91434165  1
  N  N469  1  0.52406214  0.47157093  0.65427005  1
  C  C470  1  0.62371069  0.31698388  0.92463724  1
  C  C471  1  0.70529022  0.44241832  0.66626202  1
  C  C472  1  0.56475662  0.30655673  0.97453461  1
  C  C473  1  0.59654761  0.43754490  0.81291660  1
  C  C474  1  0.59981710  0.48577816  0.77438538  1
  C  C475  1  0.67994132  0.32097651  0.97577340  1
  N  N476  1  0.68591322  0.26104954  0.55576742  1
  Zn  Zn477  1  0.72212924  0.33352291  0.56863072  1
  H  H478  1  0.50406633  0.37914993  0.65458810  1
  C  C479  1  0.66624292  0.53603443  0.38095967  1
  C  C480  1  0.69225099  0.58074885  0.35214936  1
  H  H481  1  0.68256009  0.58360960  0.14221186  1
  H  H482  1  0.66738470  0.61683686  0.36700724  1
  C  C483  1  0.57085277  0.65659064  0.44300130  1
  H  H484  1  0.71280399  0.67390326  0.13942523  1
  C  C485  1  0.71978675  0.60006889  0.10100402  1
  H  H486  1  0.62400078  0.53699659  0.42684126  1
  O  O487  1  0.55606396  0.71622024  0.27795157  1
  H  H488  1  0.59425022  0.72100945  0.05478623  1
  H  H489  1  0.59369812  0.69360853  0.44318078  1
  C  C490  1  0.59423299  0.52164469  0.02227555  1
  C  C491  1  0.54597373  0.64213944  0.35828877  1
  C  C492  1  0.53609144  0.58147082  0.49960789  1
  C  C493  1  0.74222763  0.64761032  0.10230332  1
  C  C494  1  0.51968495  0.59461075  0.33887183  1
  C  C495  1  0.54128107  0.67414742  0.28019290  1
  O  O496  1  0.51225950  0.65240616  0.19116497  1
  H  H497  1  0.51201697  0.68420481  0.15727728  1
  H  H498  1  0.74087635  0.51522852  0.47588367  1
  C  C499  1  0.51676287  0.56309020  0.41254984  1
  C  C500  1  0.73666273  0.50949663  0.07837867  1
  H  H501  1  0.50364820  0.58178684  0.27206715  1
  C  C502  1  0.73551625  0.82852716  0.39978005  1
  H  H503  1  0.72240781  0.89450718  0.25338533  1
  H  H504  1  0.50196893  0.76868280  0.47932021  1
  C  C505  1  0.50251383  0.81052861  0.48453270  1
  C  C506  1  0.66130267  0.99899018  0.45587528  1
  C  C507  1  0.71028043  0.92040061  0.44887020  1
  H  H508  1  0.70109976  0.76862419  0.07120206  1
  N  N509  1  0.72103763  0.78168088  0.42978435  1
  C  C510  1  0.54270765  0.78123570  0.11156213  1
  H  H511  1  0.56965880  0.86264398  0.02717137  1
  C  C512  1  0.65670555  0.78239232  0.10098927  1
  C  C513  1  0.50366303  0.84074531  0.40783437  1
  C  C514  1  0.50240787  0.89127216  0.41622453  1
  C  C515  1  0.59235602  0.84273743  0.18626396  1
  C  C516  1  0.71349017  0.86732816  0.45999585  1
  N  N517  1  0.53687940  0.82450660  0.16073816  1
  O  O518  1  0.65208618  0.93539716  0.06357972  1
  H  H519  1  0.50274164  0.82261351  0.33885074  1
  C  C520  1  0.64832816  0.82765274  0.14916405  1
  C  C521  1  0.59964554  0.75909699  0.08273719  1
  H  H522  1  0.58009898  0.87676928  0.22648764  1
  C  C523  1  0.65993786  0.94991183  0.48130061  1
  H  H524  1  0.69249992  0.84956729  0.14535908  1
  C  C525  1  0.66993684  0.65718978  0.64891024  1
  Zn  Zn526  1  0.65206056  0.59740997  0.73810930  1
  H  H527  1  0.62314631  0.69733452  0.76281760  1
  C  C528  1  0.64409067  0.69856224  0.69249743  1
  N  N529  1  0.63896829  0.52208920  0.80922466  1
  N  N530  1  0.57309258  0.54517731  0.64712367  1
  C  C531  1  0.69527379  0.65728316  0.56153103  1
  C  C532  1  0.69016475  0.71114674  0.88118986  1
  O  O533  1  0.60357705  0.67055675  0.94528951  1
  C  C534  1  0.65369579  0.66539807  0.90528218  1
  O  O535  1  0.67441461  0.62360552  0.88043358  1
  C  C536  1  0.53706886  0.54256997  0.57166767  1
  H  H537  1  0.58315146  0.63553638  0.59091500  1
  H  H538  1  0.71958800  0.53555105  0.88246624  1
  H  H539  1  0.51910700  0.52136270  0.91818558  1
  C  C540  1  0.68035322  0.74392126  0.56333648  1
  Zn  Zn541  1  0.51606900  0.70959117  0.90382534  1
  C  C542  1  0.68209626  0.50736121  0.87073439  1
  H  H543  1  0.71709206  0.62532800  0.53057865  1
  H  H544  1  0.50019569  0.60242872  0.90158782  1
  N  N545  1  0.70135172  0.70131585  0.51296025  1
  C  C546  1  0.64819486  0.74477633  0.64423672  1
  C  C547  1  0.53346936  0.51326639  0.98812994  1
  C  C548  1  0.74346989  0.50216056  0.54658237  1
  C  C549  1  0.56734645  0.62691405  0.51825024  1
  H  H550  1  0.62948291  0.54164409  0.97953454  1
  C  C551  1  0.65524479  0.92428970  0.98489286  1
  C  C552  1  0.69241075  0.78892189  0.50642640  1
  N  N553  1  0.68502311  0.84230521  0.52880777  1
  H  H554  1  0.51735233  0.90263402  0.65102054  1
  C  C555  1  0.54006297  0.83594198  0.89732261  1
  C  C556  1  0.51213725  0.88529689  0.58242975  1
  H  H557  1  0.74706101  0.90727324  0.64548592  1
  C  C558  1  0.57973028  0.86264508  0.95466970  1
  C  C559  1  0.50922507  0.79692647  0.64833482  1
  H  H560  1  0.51115993  0.80890478  0.93236278  1
  C  C561  1  0.69945360  0.79861099  0.87981294  1
  H  H562  1  0.67766282  0.83495174  0.89155981  1
  H  H563  1  0.74340593  0.87746455  0.73164091  1
  H  H564  1  0.67953488  0.85687719  0.59227638  1
  N  N565  1  0.50917788  0.75226947  0.77722926  1
  H  H566  1  0.60367709  0.87287700  0.68337455  1
  H  H567  1  0.66776868  0.92428394  0.78537003  1
  C  C568  1  0.62720401  0.89225222  0.91569702  1
  C  C569  1  0.55499006  0.83491186  0.80307893  1
  C  C570  1  0.52515709  0.79762592  0.74604220  1
  C  C571  1  0.63448013  0.89695645  0.81810890  1
  O  O572  1  0.71610597  0.88921938  0.68281743  1
  C  C573  1  0.59572858  0.87107996  0.75807458  1
  H  H574  1  0.62512431  0.77869360  0.67318371  1
  Zn  Zn575  1  0.72832151  0.95144367  0.91709231  1
  C  C576  1  0.66298815  0.75801872  0.89478308  1
  H  H577  1  0.61725795  0.76169371  0.92034236  1
  C  C578  1  0.51255566  0.83271284  0.57086207  1
  H  H579  1  0.50584183  0.95391001  0.50656745  1
  C  C580  1  0.50767158  0.91320644  0.50198965  1
  H  H581  1  0.62015165  0.93260277  0.52085385  1
  C  C582  1  0.90576929  0.21953249  0.24768867  1
  O  O583  1  0.89051813  0.18990520  0.18853645  1
  N  N584  1  0.82448615  0.08534146  0.13171722  1
  C  C585  1  0.86046829  0.22400473  0.32679622  1
  H  H586  1  0.88258368  0.10737982  0.22934151  1
  C  C587  1  0.80995606  0.04856668  0.07627133  1
  C  C588  1  0.87088537  0.07613465  0.18546664  1
  C  C589  1  0.81078848  0.19062139  0.32646714  1
  H  H590  1  0.81301659  0.15970156  0.28091286  1
  C  C591  1  0.90030639  0.03033493  0.19479067  1
  C  C592  1  0.76413664  0.19028924  0.39146011  1
  O  O593  1  0.75892726  0.08790872  0.33766889  1
  C  C594  1  0.76853787  0.22702352  0.45907600  1
  H  H595  1  0.86238704  0.13567759  0.04674545  1
  O  O596  1  0.95070809  0.24668551  0.24524187  1
  H  H597  1  0.80165102  0.00982068  0.34504065  1
  H  H598  1  0.93851471  0.02320920  0.24413913  1
  O  O599  1  0.96757452  0.19422365  0.00568595  1
  C  C600  1  0.75015197  0.49030043  0.31155959  1
  H  H601  1  0.81428897  0.25290749  0.20728620  1
  C  C602  1  0.88418087  0.45024544  0.25677853  1
  H  H603  1  0.98460927  0.28605798  0.32462466  1
  C  C604  1  0.86345302  0.38926626  0.38286490  1
  H  H605  1  0.77237497  0.45535409  0.29358557  1
  C  C606  1  0.86401489  0.26174581  0.39148764  1
  H  H607  1  0.90151811  0.28949350  0.39202448  1
  C  C608  1  0.82077478  0.25845122  0.46189050  1
  C  C609  1  0.79989152  0.28803062  0.17646155  1
  C  C610  1  0.80496740  0.37532886  0.42352721  1
  N  N611  1  0.77718449  0.47297666  0.06905585  1
  C  C612  1  0.89977962  0.47651426  0.17427791  1
  H  H613  1  0.96982766  0.31734818  0.06162979  1
  H  H614  1  0.88857657  0.29450575  0.10759566  1
  C  C615  1  0.84371033  0.31274170  0.12298564  1
  H  H616  1  0.87956740  0.45769898  0.10914720  1
  C  C617  1  0.83120144  0.36078263  0.09489842  1
  H  H618  1  0.86647233  0.38524836  0.06247836  1
  H  H619  1  0.96838027  0.39696116  0.39088071  1
  C  C620  1  0.92319958  0.38921244  0.42510810  1
  C  C621  1  0.77304061  0.37944585  0.11952373  1
  H  H622  1  0.83344502  0.38086820  0.23999940  1
  C  C623  1  0.85866204  0.40528853  0.28662187  1
  H  H624  1  0.75662749  0.37260024  0.39531721  1
  C  C625  1  0.96704894  0.39202068  0.01087948  1
  C  C626  1  0.94892627  0.34112373  0.01189494  1
  C  C627  1  0.75022535  0.43061455  0.09934067  1
  C  C628  1  0.87006821  0.10576942  0.76964677  1
  H  H629  1  0.82986485  0.12663070  0.75076687  1
  C  C630  1  0.92649500  0.12825330  0.77359384  1
  C  C631  1  0.92727298  0.18233688  0.76253794  1
  C  C632  1  0.87115403  0.21582736  0.75309786  1
  C  C633  1  0.87139070  0.05260219  0.78863771  1
  C  C634  1  0.81573442  0.02924050  0.82591931  1
  H  H635  1  0.95974914  0.04068093  0.71050363  1
  C  C636  1  0.92267093  0.02334773  0.75086796  1
  C  C637  1  0.80026265  0.13123126  0.54940027  1
  H  H638  1  0.77412295  0.04892423  0.84580934  1
  O  O639  1  0.81675104  0.22165955  0.74274296  1
  C  C640  1  0.82792357  0.08568993  0.54017649  1
  C  C641  1  0.80350668  0.04467130  0.58511623  1
  H  H642  1  0.82070590  0.16108390  0.51421243  1
  H  H643  1  0.87028694  0.08377761  0.50079538  1
  C  C644  1  0.93877233  0.15806456  0.99595260  1
  H  H645  1  0.79511347  0.13078717  0.97706748  1
  H  H646  1  0.87100304  0.07918525  0.94656225  1
  C  C647  1  0.92141687  0.06798600  0.96725204  1
  C  C648  1  0.94119195  0.01906906  0.95869111  1
  C  C649  1  0.96272080  0.10591443  0.99189746  1
  H  H650  1  0.96643404  0.10736366  0.78674812  1
  O  O651  1  0.86716412  0.16015785  0.99724856  1
  N  N652  1  0.75783776  0.10626097  0.96195654  1
  C  C653  1  0.99386179  0.19851426  0.74470439  1
  C  C654  1  0.75146486  0.04440317  0.64539886  1
  H  H655  1  0.76426846  0.20645358  0.87659858  1
  C  C656  1  0.76117360  0.06178278  0.99972777  1
  C  C657  1  0.75149163  0.45722898  0.72767352  1
  H  H658  1  0.75618219  0.44064405  0.79738934  1
  C  C659  1  0.79119560  0.49535948  0.69721252  1
  H  H660  1  0.83172668  0.28302291  0.51927187  1
  C  C661  1  0.85133475  0.34581154  0.79432655  1
  H  H662  1  0.95871678  0.37311740  0.56010104  1
  C  C663  1  0.84727473  0.35018223  0.65001089  1
  C  C664  1  0.91764773  0.37390232  0.51411620  1
  C  C665  1  0.85805527  0.36125444  0.55085722  1
  C  C666  1  0.78589499  0.34083482  0.77192298  1
  N  N667  1  0.80464320  0.35703513  0.50404107  1
  C  C668  1  0.94757192  0.42565061  0.94010603  1
  C  C669  1  0.90540004  0.32347251  0.94798523  1
  N  N670  1  0.88920878  0.34352761  0.71903080  1
  H  H671  1  0.96299213  0.40895706  0.70832774  1
  C  C672  1  0.91222486  0.40684720  0.87556561  1
  H  H673  1  0.89801945  0.43159454  0.81966178  1
  C  C674  1  0.97088332  0.47225869  0.62073371  1
  H  H675  1  0.92988445  0.46466410  0.58286659  1
  H  H676  1  0.96315050  0.46358930  0.93587589  1
  Zn  Zn677  1  0.94825228  0.26530515  0.73003345  1
  C  C678  1  0.99231399  0.44068454  0.68878640  1
  H  H679  1  0.77388742  0.34146935  0.96364474  1
  N  N680  1  0.78447817  0.34809003  0.67853462  1
  C  C681  1  0.88765149  0.35739143  0.87998596  1
  H  H682  1  0.88565877  0.28674552  0.95246414  1
  O  O683  1  0.83868041  0.62049167  0.25234137  1
  H  H684  1  0.82172601  0.53122354  0.24866937  1
  O  O685  1  0.85264226  0.66426319  0.44221134  1
  H  H686  1  0.87504025  0.63914600  0.40953256  1
  H  H687  1  0.93084160  0.54234804  0.09114768  1
  C  C688  1  0.95485439  0.55664795  0.23281286  1
  C  C689  1  0.75477992  0.56168067  0.05929761  1
  C  C690  1  0.91030307  0.69979827  0.45538088  1
  C  C691  1  0.80117341  0.65908504  0.06289252  1
  C  C692  1  0.78475089  0.62532677  0.27919282  1
  C  C693  1  0.78135815  0.53495357  0.29235096  1
  O  O694  1  0.95617810  0.69235034  0.41592678  1
  C  C695  1  0.92860018  0.52657872  0.16267097  1
  Zn  Zn696  1  0.92281343  0.50655847  0.33297436  1
  C  C697  1  0.82785590  0.71022254  0.06589001  1
  O  O698  1  0.94258479  0.53499577  0.48311577  1
  O  O699  1  0.79984177  0.74323321  0.10200772  1
  Zn  Zn700  1  0.75305932  0.71136857  0.39468077  1
  O  O701  1  0.98325426  0.59427124  0.24397887  1
  O  O702  1  0.75422278  0.66697201  0.28486814  1
  C  C703  1  0.75162328  0.57966686  0.31103208  1
  H  H704  1  0.88479095  0.63097129  0.00292356  1
  O  O705  1  0.88575617  0.72183966  0.02564674  1
  C  C706  1  0.81189796  0.57406093  0.01554780  1
  C  C707  1  0.83656809  0.62084297  0.02196868  1
  H  H708  1  0.81449694  0.96984155  0.03442253  1
  C  C709  1  0.83062110  0.99897829  0.08278924  1
  O  O710  1  0.95828651  0.93507988  0.29941756  1
  H  H711  1  0.85211339  0.77981077  0.36901504  1
  H  H712  1  0.92295609  0.79337510  0.23827905  1
  C  C713  1  0.76289852  0.99218304  0.38103449  1
  C  C714  1  0.80968848  0.88141832  0.18782854  1
  H  H715  1  0.79859107  0.91898341  0.36641783  1
  H  H716  1  0.79943806  0.91094411  0.14000617  1
  C  C717  1  0.76664692  0.87324642  0.25889903  1
  O  O718  1  0.89327672  0.89338927  0.03281735  1
  O  O719  1  0.99754571  0.98070142  0.40699300  1
  C  C720  1  0.88039525  0.98910567  0.14312212  1
  C  C721  1  0.87917224  0.81497809  0.24600648  1
  O  O722  1  0.94779303  0.82826541  0.08485758  1
  C  C723  1  0.76057170  0.94173874  0.39495455  1
  C  C724  1  0.78234322  0.83589451  0.32312465  1
  C  C725  1  0.86224377  0.85054600  0.17763430  1
  C  C726  1  0.90454068  0.85581238  0.09759775  1
  H  H727  1  0.90333561  0.95367045  0.14813019  1
  C  C728  1  0.83729464  0.80581974  0.31545787  1
  H  H729  1  0.90200202  0.75385587  0.04877564  1
  H  H730  1  0.89929827  0.55851754  0.80682936  1
  O  O731  1  0.87869336  0.55409779  0.74674038  1
  H  H732  1  0.97797516  0.60893361  0.72537221  1
  O  O733  1  0.97338083  0.55909348  0.86095848  1
  H  H734  1  0.81934371  0.54932298  0.59313731  1
  C  C735  1  0.99352210  0.54212533  0.51979237  1
  C  C736  1  0.89422132  0.67478033  0.81517054  1
  O  O737  1  0.86264411  0.66395065  0.76353446  1
  H  H738  1  0.80347484  0.70533343  0.55118075  1
  H  H739  1  0.77237738  0.66788479  0.84913235  1
  C  C740  1  0.78691150  0.51767175  0.61102711  1
  C  C741  1  0.83265733  0.51714959  0.77238616  1
  H  H742  1  0.96382055  0.73954034  0.83376985  1
  H  H743  1  0.83746678  0.74385486  0.81355505  1
  C  C744  1  0.75314329  0.70529454  0.85914645  1
  O  O745  1  0.83303434  0.50318620  0.84838908  1
  C  C746  1  0.89573973  0.73479195  0.52852997  1
  C  C747  1  0.83780900  0.73328859  0.57626795  1
  H  H748  1  0.83833614  0.54570006  0.97927470  1
  C  C749  1  0.78883561  0.74630345  0.83980664  1
  N  N750  1  0.88507584  0.87833132  0.75458310  1
  C  C751  1  0.84776950  0.90439480  0.81055252  1
  C  C752  1  0.83803700  0.99783715  0.57878814  1
  H  H753  1  0.98703794  0.77355394  0.52123607  1
  C  C754  1  0.93329806  0.80095205  0.63207416  1
  O  O755  1  0.88602327  0.99571278  0.54017903  1
  H  H756  1  0.84390482  0.93004124  0.60173389  1
  C  C757  1  0.94168316  0.77022090  0.55828924  1
  H  H758  1  0.96291515  0.83391555  0.87300310  1
  N  N759  1  0.80017586  0.87924174  0.85224178  1
  H  H760  1  0.90969714  0.98780988  0.93857645  1
  H  H761  1  0.97235910  0.82618617  0.65788252  1
  C  C762  1  0.87496110  0.79791187  0.67899257  1
  C  C763  1  0.76277401  0.79339086  0.85264017  1
  H  H764  1  0.78265389  0.76107644  0.68676555  1
  C  C765  1  0.86003032  0.95860292  0.81565326  1
  C  C766  1  0.80582987  0.83272096  0.81895434  1
  H  H767  1  0.94808219  0.94640028  0.74005701  1
  C  C768  1  0.85702940  0.83314286  0.75409446  1
  C  C769  1  0.82730720  0.76487461  0.65024982  1
  N  N770  1  0.80737372  0.98221681  0.84700555  1
  C  C771  1  0.91463156  0.97429236  0.76608112  1
  O  O772  1  0.80787700  0.95152599  0.61753320  1
  H  H773  1  0.92646347  0.88614198  0.98812269  1
