# generated using pymatgen
data_ZnH13C22N3O4
_symmetry_space_group_name_H-M   'P 1'
_cell_length_a   37.83396815
_cell_length_b   19.31437143
_cell_length_c   11.88243393
_cell_angle_alpha   90.00000000
_cell_angle_beta   90.00000000
_cell_angle_gamma   90.00000000
_symmetry_Int_Tables_number   1
_chemical_formula_structural   ZnH13C22N3O4
_chemical_formula_sum   'Zn18 H234 C396 N54 O72'
_cell_volume   8682.96161406
_cell_formula_units_Z   18
loop_
 _symmetry_equiv_pos_site_id
 _symmetry_equiv_pos_as_xyz
  1  'x, y, z'
loop_
 _atom_site_type_symbol
 _atom_site_label
 _atom_site_symmetry_multiplicity
 _atom_site_fract_x
 _atom_site_fract_y
 _atom_site_fract_z
 _atom_site_occupancy
  C  C0  1  0.20729580  0.39704368  0.21637339  1
  C  C1  1  0.00633926  0.03525235  0.07401104  1
  C  C2  1  0.10748630  0.44651820  0.39286660  1
  H  H3  1  0.21576489  0.43041321  0.14967998  1
  C  C4  1  0.01001128  0.09382038  0.14974819  1
  H  H5  1  0.10623744  0.17938455  0.48469696  1
  C  C6  1  0.11754973  0.20657794  0.26708403  1
  C  C7  1  0.23011787  0.12309668  0.40483521  1
  C  C8  1  0.16593655  0.03654559  0.25070451  1
  H  H9  1  0.18175887  0.27768533  0.47206377  1
  C  C10  1  0.18944961  0.31008825  0.39939994  1
  C  C11  1  0.15668861  0.04773358  0.36900503  1
  N  N12  1  0.12369473  0.01978724  0.39811578  1
  C  C13  1  0.15181876  0.22394057  0.07759199  1
  H  H14  1  0.07845348  0.46032802  0.17078202  1
  C  C15  1  0.03381040  0.08738777  0.24251482  1
  C  C16  1  0.18247452  0.19511401  0.25264952  1
  H  H17  1  0.18220221  0.19631058  0.34162455  1
  N  N18  1  0.08484886  0.45166810  0.47467347  1
  H  H19  1  0.06275799  0.01968911  0.34745783  1
  H  H20  1  0.03811758  0.13228326  0.29559271  1
  C  C21  1  0.20402600  0.12659053  0.49234222  1
  C  C22  1  0.22405929  0.31088818  0.35783189  1
  O  O23  1  0.12224234  0.19795886  0.36978577  1
  C  C24  1  0.18337819  0.22389360  0.01602291  1
  O  O25  1  0.08851879  0.20902704  0.22515633  1
  H  H26  1  0.23937174  0.19892596  0.24247448  1
  C  C27  1  0.14995580  0.05541591  0.05007085  1
  C  C28  1  0.21681303  0.21586294  0.07550104  1
  C  C29  1  0.15110012  0.20596546  0.19189413  1
  H  H30  1  0.11241923  0.06423599  0.18693374  1
  C  C31  1  0.13200476  0.38628195  0.41301136  1
  C  C32  1  0.05199263  0.02674647  0.26460991  1
  H  H33  1  0.22886471  0.08956441  0.32870088  1
  C  C34  1  0.16428675  0.36107004  0.35351493  1
  C  C35  1  0.17204913  0.39895348  0.25162464  1
  C  C36  1  0.23242297  0.35234832  0.26575990  1
  H  H37  1  0.15298324  0.43150409  0.21160869  1
  C  C38  1  0.21483423  0.19921176  0.19430520  1
  C  C39  1  0.20078258  0.01440206  0.21063523  1
  H  H40  1  0.12740475  0.23872687  0.03597938  1
  C  C41  1  0.14038447  0.05309213  0.16368517  1
  C  C42  1  0.21123288  0.02053958  0.09915364  1
  C  C43  1  0.18596650  0.04225063  0.01726444  1
  H  H44  1  0.20298902  0.33452932  0.03341399  1
  H  H45  1  0.00176239  0.31868029  0.34856827  1
  H  H46  1  0.24570518  0.28131040  0.39764261  1
  O  O47  1  0.05596107  0.34330147  0.03535202  1
  C  C48  1  0.17208649  0.08501001  0.46465651  1
  H  H49  1  0.23748046  0.00616928  0.07343619  1
  H  H50  1  0.05511097  0.20084143  0.01623211  1
  H  H51  1  0.15598127  0.39053371  0.91055371  1
  C  C52  1  0.19747062  0.04918137  0.89897651  1
  C  C53  1  0.12297370  0.03558766  0.51065950  1
  H  H54  1  0.13871902  0.44587222  0.55994300  1
  C  C55  1  0.06126557  0.34350462  0.72122926  1
  C  C56  1  0.09653663  0.18102207  0.64824453  1
  N  N57  1  0.15012584  0.07436797  0.55195458  1
  C  C58  1  0.09083447  0.39357805  0.54055255  1
  C  C59  1  0.24479003  0.34737258  0.76474951  1
  H  H60  1  0.02712669  0.13951684  0.61299127  1
  C  C61  1  0.07691234  0.18778452  0.84899114  1
  O  O62  1  0.17992941  0.05112093  0.81817342  1
  C  C63  1  0.20661245  0.17119764  0.58965598  1
  O  O64  1  0.12633941  0.19623329  0.66519054  1
  C  C65  1  0.04960661  0.18867854  0.92536054  1
  C  C66  1  0.01485985  0.40900458  0.80222701  1
  C  C67  1  0.18561785  0.39792695  0.76144984  1
  C  C68  1  0.01386899  0.17785394  0.89507955  1
  H  H69  1  0.22258817  0.40263145  0.62301162  1
  N  N70  1  0.04348433  0.45098708  0.63781646  1
  H  H71  1  0.09754400  0.05915409  0.72338816  1
  O  O72  1  0.11115576  0.33049520  0.95399752  1
  C  C73  1  0.01920990  0.45737703  0.71442791  1
  H  H74  1  0.10379917  0.20524667  0.87099540  1
  C  C75  1  0.03377224  0.15695047  0.70319510  1
  H  H76  1  0.03214462  0.31092050  0.88307043  1
  C  C77  1  0.06809097  0.17467800  0.73630245  1
  C  C78  1  0.06489853  0.39550079  0.64174524  1
  C  C79  1  0.03551145  0.35089439  0.80935664  1
  C  C80  1  0.00735932  0.15989485  0.78033550  1
  H  H81  1  0.07692938  0.29365640  0.70996854  1
  C  C82  1  0.20742548  0.34628003  0.94328557  1
  C  C83  1  0.18226802  0.37775970  0.87703871  1
  H  H84  1  0.24000407  0.23322236  0.69255438  1
  H  H85  1  0.18275727  0.24146734  0.92599636  1
  O  O86  1  0.12944447  0.45663873  0.75207662  1
  H  H87  1  0.18784595  0.17426905  0.65899176  1
  C  C88  1  0.21850901  0.38365428  0.70751105  1
  C  C89  1  0.15691899  0.44052937  0.70898395  1
  H  H90  1  0.23841369  0.02442144  0.81533348  1
  C  C91  1  0.23900835  0.32780587  0.87943245  1
  C  C92  1  0.23737995  0.20730324  0.61308214  1
  O  O93  1  0.16233117  0.45852143  0.59027290  1
  O  O94  1  0.23742091  0.04463619  0.89350337  1
  C  C95  1  0.08707865  0.01011674  0.69019178  1
  O  O96  1  0.08472528  0.17160780  0.53840016  1
  N  N97  1  0.11934996  0.35499297  0.50577728  1
  H  H98  1  0.13030846  0.06972460  0.98843136  1
  C  C99  1  0.08432310  0.33785951  0.99735798  1
  H  H100  1  0.12733594  0.31183340  0.54193233  1
  C  C101  1  0.07662284  0.69806921  0.47480328  1
  H  H102  1  0.02213396  0.92978876  0.03136182  1
  C  C103  1  0.13442489  0.89388225  0.01719935  1
  C  C104  1  0.23963874  0.61370047  0.08069448  1
  C  C105  1  0.09783855  0.73705389  0.39972823  1
  C  C106  1  0.06726787  0.90138800  0.19311483  1
  O  O107  1  0.06623336  0.84831749  0.14461892  1
  C  C108  1  0.21500607  0.79444303  0.43604477  1
  C  C109  1  0.12925742  0.56384274  0.34684851  1
  C  C110  1  0.24241581  0.56116780  0.42134044  1
  C  C111  1  0.09203287  0.56664246  0.13668883  1
  C  C112  1  0.12266296  0.68163246  0.09192066  1
  C  C113  1  0.16533411  0.86291554  0.20552241  1
  C  C114  1  0.12993322  0.76509123  0.43420486  1
  N  N115  1  0.19887074  0.84518372  0.24476631  1
  N  N116  1  0.13608888  0.84316099  0.27100085  1
  N  N117  1  0.19631514  0.86299393  0.02449843  1
  H  H118  1  0.21886088  0.57449629  0.07848549  1
  Zn  Zn119  1  0.23696671  0.83406324  0.11751521  1
  C  C120  1  0.19134565  0.80536522  0.33579473  1
  H  H121  1  0.08912891  0.74638394  0.31153440  1
  C  C122  1  0.13325412  0.62269182  0.27342012  1
  C  C123  1  0.02474211  0.97261175  0.09072513  1
  C  C124  1  0.15255040  0.80433590  0.35264454  1
  H  H125  1  0.21322252  0.68454192  0.39649741  1
  H  H126  1  0.10821978  0.90054168  0.06148048  1
  C  C127  1  0.16515517  0.87510481  0.07601231  1
  C  C128  1  0.11578521  0.61796684  0.17202207  1
  O  O129  1  0.22439649  0.54789429  0.34459692  1
  H  H130  1  0.05159567  0.66947993  0.45185937  1
  H  H131  1  0.15166294  0.66333264  0.29477687  1
  H  H132  1  0.20656075  0.69865197  0.15573480  1
  H  H133  1  0.00710963  0.64083577  0.14663633  1
  Zn  Zn134  1  0.10076570  0.92074456  0.34216312  1
  O  O135  1  0.01878824  0.58882263  0.40435214  1
  C  C136  1  0.23309493  0.68044757  0.12023431  1
  C  C137  1  0.10781950  0.50879341  0.31198591  1
  O  O138  1  0.14857414  0.71838727  0.10298238  1
  C  C139  1  0.05008481  0.97001055  0.18134764  1
  H  H140  1  0.14495216  0.56237213  0.42196285  1
  H  H141  1  0.08178787  0.56793077  0.04903073  1
  C  C142  1  0.09079296  0.50739716  0.20497374  1
  C  C143  1  0.22122080  0.72338161  0.46466474  1
  H  H144  1  0.21769371  0.99395631  0.28535979  1
  O  O145  1  0.10053523  0.69526545  0.01669677  1
  H  H146  1  0.21708528  0.90491187  0.48546844  1
  O  O147  1  0.08162246  0.62830953  0.76285760  1
  O  O148  1  0.23068841  0.54317883  0.53922124  1
  C  C149  1  0.14214801  0.75485040  0.54976741  1
  H  H150  1  0.06078930  0.96655508  0.83659085  1
  H  H151  1  0.22499072  0.85482074  0.88067264  1
  C  C152  1  0.06915071  0.95763211  0.75034025  1
  C  C153  1  0.13695048  0.90279172  0.89926840  1
  H  H154  1  0.17108360  0.88648974  0.75603481  1
  C  C155  1  0.16899776  0.88775334  0.84847897  1
  H  H156  1  0.16611632  0.78024665  0.57990922  1
  C  C157  1  0.07037622  0.64223140  0.66988748  1
  N  N158  1  0.08610166  0.93539196  0.52148742  1
  C  C159  1  0.24107592  0.83456003  0.60989039  1
  C  C160  1  0.06823384  0.88675611  0.57655264  1
  C  C161  1  0.19865079  0.86740699  0.91393406  1
  C  C162  1  0.08973289  0.68738398  0.58541205  1
  C  C163  1  0.12101599  0.71955270  0.62288232  1
  C  C164  1  0.22530176  0.85179027  0.51060414  1
  H  H165  1  0.12931120  0.71303979  0.71309013  1
  H  H166  1  0.11431841  0.91202882  0.84508695  1
  O  O167  1  0.04235724  0.61403941  0.63280587  1
  C  C168  1  0.05810998  0.89815780  0.68887274  1
  O  O169  1  0.00386778  0.80603715  0.81338066  1
  H  H170  1  0.04375732  0.85621109  0.73406304  1
  C  C171  1  0.23787403  0.70949603  0.56431812  1
  H  H172  1  0.06292947  0.84075542  0.52076099  1
  H  H173  1  0.00388525  0.50538205  0.69509882  1
  C  C174  1  0.24752344  0.76227141  0.64876381  1
  H  H175  1  0.24482292  0.55279208  0.73473208  1
  H  H176  1  0.24854032  0.87820188  0.66253655  1
  C  C177  1  0.09500251  0.99131942  0.57595328  1
  Zn  Zn178  1  0.04838126  0.53033570  0.51230102  1
  H  H179  1  0.24364514  0.65453014  0.57455963  1
  H  H180  1  0.20735239  0.52821920  0.51921871  1
  C  C181  1  0.42574406  0.28097557  0.44715715  1
  H  H182  1  0.48184678  0.41541408  0.46873724  1
  N  N183  1  0.28191456  0.19699407  0.06594949  1
  Zn  Zn184  1  0.29074115  0.08263674  0.02559108  1
  H  H185  1  0.39333513  0.08787501  0.17996338  1
  C  C186  1  0.26136342  0.16072055  0.42462699  1
  C  C187  1  0.38646401  0.46458293  0.08847522  1
  C  C188  1  0.43060207  0.32028043  0.25560649  1
  C  C189  1  0.41089250  0.32746561  0.35628780  1
  C  C190  1  0.39322272  0.03807586  0.48981633  1
  C  C191  1  0.47443125  0.43884610  0.05988168  1
  C  C192  1  0.39266679  0.41226478  0.18153361  1
  O  O193  1  0.29477658  0.33759843  0.27563815  1
  C  C194  1  0.30975712  0.24047677  0.02529115  1
  C  C195  1  0.42407390  0.12282024  0.35144996  1
  H  H196  1  0.35183555  0.10793424  0.44688166  1
  C  C197  1  0.42026191  0.05708853  0.40521506  1
  O  O198  1  0.45094641  0.24405971  0.44269547  1
  H  H199  1  0.34890853  0.44264769  0.28415885  1
  C  C200  1  0.41488204  0.15829809  0.05025933  1
  H  H201  1  0.33718447  0.15098889  0.18646084  1
  C  C202  1  0.25201615  0.22804697  0.02705548  1
  O  O203  1  0.27415007  0.40450367  0.14259263  1
  H  H204  1  0.43442860  0.36418378  0.08558754  1
  H  H205  1  0.46963275  0.47918145  0.12290575  1
  C  C206  1  0.37242694  0.41140550  0.28487493  1
  C  C207  1  0.44977062  0.13207298  0.27127626  1
  H  H208  1  0.28282100  0.15946814  0.35858222  1
  C  C209  1  0.47253421  0.07398113  0.25125866  1
  C  C210  1  0.37983153  0.36602901  0.37189038  1
  H  H211  1  0.45131391  0.27789085  0.24555044  1
  C  C212  1  0.35662909  0.16527986  0.12047828  1
  H  H213  1  0.40525782  0.16467883  0.37628557  1
  H  H214  1  0.29258317  0.46901120  0.40174598  1
  C  C215  1  0.39017050  0.13321438  0.12757340  1
  C  C216  1  0.42199709  0.36601901  0.16920837  1
  H  H217  1  0.45492596  0.18074846  0.22200051  1
  C  C218  1  0.31298337  0.46250619  0.46967861  1
  H  H219  1  0.36244053  0.36044242  0.44504984  1
  Zn  Zn220  1  0.31125662  0.40481677  0.01221726  1
  C  C221  1  0.27126455  0.36421987  0.22968287  1
  C  C222  1  0.34728380  0.21945257  0.04641524  1
  H  H223  1  0.49623971  0.07449410  0.19699288  1
  C  C224  1  0.49921830  0.31741788  0.03025080  1
  H  H225  1  0.44038891  0.12690923  0.03911495  1
  C  C226  1  0.29270391  0.00882240  0.14974181  1
  N  N227  1  0.44054884  0.00043955  0.37599240  1
  C  C228  1  0.46654006  0.01038687  0.30189476  1
  N  N229  1  0.36469629  0.44020056  0.00284747  1
  C  C230  1  0.49476673  0.38002749  0.08853715  1
  O  O231  1  0.29017550  0.01498674  0.25376713  1
  C  C232  1  0.44309823  0.37670015  0.78545793  1
  N  N233  1  0.40709623  0.38069356  0.78056726  1
  H  H234  1  0.29438788  0.10606946  0.57281856  1
  H  H235  1  0.34669962  0.07473207  0.90612194  1
  N  N236  1  0.30576704  0.47348847  0.88678623  1
  O  O237  1  0.30351379  0.26664835  0.63904026  1
  C  C238  1  0.26526763  0.19602133  0.52949793  1
  H  H239  1  0.26900699  0.32504327  0.72025927  1
  O  O240  1  0.39350766  0.18688561  0.74636699  1
  Zn  Zn241  1  0.37274844  0.34439126  0.92199151  1
  C  C242  1  0.41976376  0.14791292  0.77817062  1
  H  H243  1  0.49012125  0.26844302  0.86700473  1
  N  N244  1  0.43079848  0.43942037  0.62530536  1
  H  H245  1  0.47787099  0.08828612  0.87690822  1
  C  C246  1  0.29962232  0.22758813  0.56246520  1
  Zn  Zn247  1  0.37661030  0.19213291  0.58056596  1
  H  H248  1  0.25426005  0.44907981  0.85540574  1
  N  N249  1  0.29848425  0.29655463  0.96638484  1
  C  C250  1  0.36811167  0.44911977  0.62906914  1
  H  H251  1  0.28618435  0.37918878  0.56271632  1
  H  H252  1  0.42504151  0.25356475  0.94697571  1
  C  C253  1  0.26241796  0.28337884  0.95099829  1
  C  C254  1  0.49784949  0.25154255  0.68245879  1
  C  C255  1  0.48489903  0.31203608  0.92400470  1
  C  C256  1  0.46414055  0.36972750  0.89050473  1
  H  H257  1  0.33644896  0.36754753  0.70077573  1
  C  C258  1  0.40133776  0.42014465  0.68156972  1
  O  O259  1  0.40610066  0.28205409  0.53881498  1
  C  C260  1  0.33946971  0.03351583  0.56730645  1
  O  O261  1  0.32649981  0.20469274  0.50422184  1
  C  C262  1  0.46289961  0.23137812  0.70170370  1
  N  N263  1  0.37509941  0.25318358  0.99506182  1
  H  H264  1  0.43841075  0.47282482  0.93642649  1
  C  C265  1  0.48524964  0.13459893  0.82387947  1
  C  C266  1  0.33650041  0.40796683  0.63578966  1
  C  C267  1  0.33445921  0.02441634  0.87889585  1
  C  C268  1  0.45779326  0.43172513  0.96007771  1
  C  C269  1  0.45782276  0.17400708  0.77149756  1
  H  H270  1  0.44049215  0.25965607  0.66629512  1
  O  O271  1  0.41412277  0.09406962  0.82480009  1
  C  C272  1  0.45832131  0.41267299  0.68816911  1
  C  C273  1  0.30494382  0.05214122  0.58442343  1
  H  H274  1  0.43008655  0.47176134  0.54868162  1
  C  C275  1  0.30879925  0.41336400  0.55771684  1
  N  N276  1  0.36368109  0.08489106  0.51554823  1
  H  H277  1  0.38036235  0.00760143  0.77164812  1
  C  C278  1  0.40620795  0.22292304  0.99617002  1
  C  C279  1  0.49571429  0.41579981  0.64981516  1
  C  C280  1  0.27573125  0.48386895  0.83474611  1
  C  C281  1  0.43581231  0.54362624  0.24513559  1
  C  C282  1  0.40336630  0.53158280  0.06676532  1
  C  C283  1  0.46388883  0.57366965  0.30187445  1
  C  C284  1  0.32643332  0.83322253  0.37089185  1
  C  C285  1  0.45650630  0.60817013  0.07020565  1
  N  N286  1  0.28875038  0.84232361  0.08069862  1
  C  C287  1  0.37815915  0.70348108  0.43126137  1
  H  H288  1  0.35393123  0.97892085  0.21432292  1
  C  C289  1  0.43112461  0.56441048  0.13190879  1
  C  C290  1  0.38759722  0.77438073  0.40307767  1
  H  H291  1  0.46750895  0.56706892  0.39402306  1
  C  C292  1  0.27439549  0.59765373  0.03949599  1
  N  N293  1  0.41971883  0.78592944  0.45736116  1
  C  C294  1  0.32290435  0.65942831  0.32536072  1
  H  H295  1  0.38127663  0.95564769  0.03941422  1
  C  C296  1  0.34160211  0.66808794  0.42859170  1
  H  H297  1  0.43876751  0.75440367  0.13351337  1
  H  H298  1  0.40574578  0.88194976  0.22525409  1
  C  C299  1  0.28901740  0.71822278  0.07353402  1
  N  N300  1  0.25482515  0.73515786  0.09919801  1
  H  H301  1  0.48383637  0.96690593  0.28887973  1
  O  O302  1  0.26885727  0.93867540  0.39397583  1
  C  C303  1  0.35246139  0.92838211  0.25732248  1
  H  H304  1  0.31134287  0.79798938  0.31784215  1
  H  H305  1  0.47181889  0.83104329  0.43068381  1
  C  C306  1  0.48801395  0.62559667  0.12059273  1
  C  C307  1  0.34188729  0.50758695  0.48463239  1
  H  H308  1  0.33493335  0.68407818  0.25159587  1
  C  C309  1  0.29975437  0.64953905  0.04621774  1
  H  H310  1  0.27314429  0.62825468  0.24541420  1
  C  C311  1  0.27607832  0.59954222  0.42025644  1
  C  C312  1  0.32374801  0.90555229  0.32241802  1
  O  O313  1  0.48075330  0.87454531  0.48082171  1
  C  C314  1  0.48896254  0.61030201  0.23984764  1
  C  C315  1  0.30027280  0.97117019  0.05204594  1
  C  C316  1  0.49359667  0.78122356  0.10157088  1
  C  C317  1  0.37882874  0.87637939  0.26550994  1
  H  H318  1  0.36325821  0.75991627  0.02386362  1
  H  H319  1  0.41639876  0.51038408  0.28458120  1
  C  C320  1  0.36757707  0.82610286  0.34659352  1
  C  C321  1  0.30879097  0.78513917  0.06319808  1
  C  C322  1  0.46117081  0.75582412  0.06903980  1
  C  C323  1  0.29225487  0.94863271  0.33169446  1
  C  C324  1  0.34660175  0.87011921  0.02416043  1
  C  C325  1  0.28993713  0.63054647  0.32167024  1
  C  C326  1  0.31139249  0.89408321  0.05807886  1
  O  O327  1  0.39653690  0.69917587  0.02584809  1
  H  H328  1  0.34725029  0.55105644  0.42674154  1
  H  H329  1  0.32657477  0.63810141  0.01929053  1
  O  O330  1  0.44870009  0.99275875  0.05043515  1
  N  N331  1  0.34374858  0.79826852  0.01242882  1
  Zn  Zn332  1  0.42945213  0.90089872  0.48821726  1
  H  H333  1  0.49875701  0.80294011  0.18636922  1
  C  C334  1  0.32072297  0.81122010  0.49884229  1
  N  N335  1  0.40425785  0.66905818  0.48489698  1
  C  C336  1  0.38023270  0.90220532  0.00644198  1
  H  H337  1  0.38824626  0.65461236  0.00538970  1
  C  C338  1  0.48461350  0.59397090  0.64004134  1
  C  C339  1  0.45926106  0.69166036  0.57144917  1
  H  H340  1  0.29423624  0.94372151  0.62784259  1
  C  C341  1  0.42134347  0.71384262  0.92123926  1
  O  O342  1  0.41032748  0.70626713  0.82986572  1
  C  C343  1  0.36620417  0.50164176  0.93375922  1
  H  H344  1  0.28211363  0.57721054  0.59871803  1
  N  N345  1  0.39104835  0.97260436  0.52969254  1
  N  N346  1  0.39060722  0.54958552  0.96541205  1
  Zn  Zn347  1  0.40576840  0.57249306  0.55166216  1
  C  C348  1  0.33285731  0.85177680  0.58147033  1
  C  C349  1  0.48349703  0.74047745  0.86954232  1
  C  C350  1  0.33247815  0.51974638  0.87035634  1
  H  H351  1  0.48599943  0.88567682  0.80370776  1
  C  C352  1  0.32992723  0.58226174  0.80679484  1
  C  C353  1  0.48918498  0.73107277  0.60869910  1
  O  O354  1  0.25855407  0.74582375  0.74346546  1
  H  H355  1  0.48608262  0.96890536  0.59822954  1
  H  H356  1  0.32254716  0.88365628  0.81198054  1
  C  C357  1  0.45716588  0.73851399  0.95150341  1
  H  H358  1  0.28926288  0.64676920  0.72401838  1
  O  O359  1  0.44046686  0.89522049  0.92663686  1
  C  C360  1  0.29586003  0.59805086  0.76575275  1
  H  H361  1  0.35199154  0.61951833  0.80724612  1
  C  C362  1  0.34702214  0.90459758  0.64515692  1
  H  H363  1  0.47893895  0.53919940  0.65701411  1
  C  C364  1  0.42793288  0.72004066  0.50456116  1
  H  H365  1  0.40887961  0.82144300  0.91380942  1
  C  C366  1  0.36035584  0.97017581  0.58294556  1
  C  C367  1  0.27049462  0.54452234  0.76978875  1
  H  H368  1  0.30818984  0.76040302  0.50418759  1
  C  C369  1  0.33910775  0.92068185  0.75960132  1
  N  N370  1  0.45700578  0.62314274  0.59072967  1
  C  C371  1  0.40880393  0.87785284  0.94831386  1
  H  H372  1  0.28744925  0.95947095  0.87270750  1
  C  C373  1  0.35445363  0.98581118  0.79971968  1
  C  C374  1  0.49720790  0.96372326  0.93149647  1
  H  H375  1  0.48891740  0.78615173  0.58642814  1
  H  H376  1  0.33939213  0.64865653  0.61178146  1
  H  H377  1  0.47765629  0.72694085  0.78115137  1
  C  C378  1  0.30041832  0.99680434  0.93039598  1
  C  C379  1  0.28178620  0.99732589  0.62684930  1
  C  C380  1  0.32507486  0.64657570  0.53013138  1
  C  C381  1  0.29442202  0.60473338  0.52489682  1
  C  C382  1  0.46097290  0.95759452  0.98066866  1
  N  N383  1  0.36864008  0.50545336  0.55875856  1
  O  O384  1  0.25213495  0.98935864  0.66149272  1
  H  H385  1  0.45385111  0.61795619  0.98008461  1
  H  H386  1  0.28130014  0.54759194  0.99802821  1
  C  C387  1  0.59261403  0.23616386  0.29456541  1
  C  C388  1  0.60580049  0.49887616  0.07154686  1
  C  C389  1  0.53637596  0.18345467  0.35876759  1
  H  H390  1  0.60876008  0.25314002  0.22030611  1
  C  C391  1  0.66097233  0.09884666  0.39140607  1
  H  H392  1  0.66326919  0.07807160  0.13670583  1
  H  H393  1  0.50972774  0.16519264  0.33433541  1
  C  C394  1  0.51565297  0.38616078  0.20294453  1
  H  H395  1  0.51607195  0.27820050  0.06990298  1
  C  C396  1  0.68267778  0.15242904  0.35079595  1
  H  H397  1  0.54716118  0.43121822  0.41172657  1
  H  H398  1  0.67785555  0.21744555  0.11392892  1
  C  C399  1  0.64440727  0.05161158  0.31288633  1
  H  H400  1  0.58155418  0.09845227  0.41032126  1
  O  O401  1  0.57696300  0.19830618  0.07741071  1
  C  C402  1  0.64818532  0.04427927  0.19189173  1
  C  C403  1  0.60264193  0.25348649  0.40763131  1
  O  O404  1  0.52587602  0.15184759  0.11607776  1
  H  H405  1  0.71682211  0.30097061  0.38340624  1
  C  C406  1  0.56175506  0.19892650  0.27517676  1
  C  C407  1  0.55488737  0.17773930  0.14625122  1
  H  H408  1  0.62835657  0.27855486  0.42491341  1
  H  H409  1  0.68793810  0.15573505  0.25861045  1
  C  C410  1  0.69186050  0.20529346  0.43122084  1
  C  C411  1  0.74718399  0.16242529  0.17997960  1
  C  C412  1  0.70543168  0.26742134  0.44743646  1
  O  O413  1  0.51265264  0.44042821  0.25640493  1
  O  O414  1  0.53402853  0.33706232  0.23009436  1
  H  H415  1  0.65584237  0.09608431  0.48225426  1
  O  O416  1  0.61244693  0.42275976  0.44877411  1
  C  C417  1  0.54374549  0.20550664  0.46801503  1
  C  C418  1  0.68032494  0.22077255  0.02012522  1
  C  C419  1  0.74757643  0.48887722  0.26742742  1
  C  C420  1  0.57786420  0.23335059  0.49453276  1
  H  H421  1  0.55552901  0.00564960  0.31334238  1
  C  C422  1  0.56410016  0.06331759  0.45692872  1
  H  H423  1  0.74149967  0.43286830  0.24813051  1
  C  C424  1  0.54759849  0.01305761  0.40147255  1
  H  H425  1  0.51810781  0.03175141  0.06748254  1
  C  C426  1  0.62423132  0.00039983  0.37669395  1
  H  H427  1  0.73780769  0.21560483  0.01026680  1
  H  H428  1  0.65827359  0.47205870  0.01327452  1
  C  C429  1  0.61983113  0.23046551  0.76356465  1
  C  C430  1  0.59192815  0.01003794  0.75758847  1
  C  C431  1  0.74186958  0.08307610  0.77119254  1
  H  H432  1  0.51620958  0.40598484  0.82250455  1
  C  C433  1  0.71309169  0.22241993  0.84030068  1
  N  N434  1  0.62870156  0.05988837  0.62610293  1
  C  C435  1  0.55820681  0.41112453  0.69911302  1
  C  C436  1  0.56570302  0.41954364  0.58211370  1
  N  N437  1  0.62028405  0.23368886  0.64413954  1
  C  C438  1  0.58632095  0.23803821  0.61733369  1
  Zn  Zn439  1  0.69233764  0.24551660  0.60879466  1
  N  N440  1  0.58735878  0.22598192  0.80718693  1
  O  O441  1  0.70370967  0.47995647  0.74203597  1
  H  H442  1  0.57936273  0.40277631  0.75436884  1
  C  C443  1  0.65064609  0.22890507  0.95131998  1
  C  C444  1  0.65303790  0.23069391  0.83061571  1
  C  C445  1  0.68381477  0.03501637  0.76890872  1
  C  C446  1  0.56489826  0.22864869  0.71946119  1
  N  N447  1  0.68564504  0.23479177  0.77613437  1
  C  C448  1  0.74522471  0.05479350  0.87986945  1
  H  H449  1  0.51856516  0.05998046  0.71020195  1
  C  C450  1  0.60498885  0.41701030  0.54740793  1
  C  C451  1  0.52298512  0.41257309  0.73177997  1
  C  C452  1  0.52217463  0.00806879  0.98479380  1
  H  H453  1  0.70723436  0.08038564  0.61853221  1
  H  H454  1  0.62374323  0.22998379  0.99307872  1
  O  O455  1  0.62951417  0.40544483  0.61854110  1
  C  C456  1  0.59212514  0.05089275  0.65218498  1
  C  C457  1  0.71086696  0.06760011  0.70663856  1
  H  H458  1  0.63072594  0.11207117  0.61294168  1
  C  C459  1  0.56330226  0.06712532  0.58228218  1
  H  H460  1  0.73763892  0.22491934  0.78532703  1
  C  C461  1  0.52913751  0.04219826  0.62873071  1
  C  C462  1  0.50394090  0.41940374  0.53260100  1
  O  O463  1  0.55677221  0.44444388  0.97205923  1
  C  C464  1  0.64584272  0.03731572  0.73214355  1
  O  O465  1  0.60983431  0.42356424  0.90884274  1
  H  H466  1  0.54272781  0.13311549  0.84278339  1
  Zn  Zn467  1  0.63400595  0.47188859  0.75739556  1
  N  N468  1  0.62389489  0.00793709  0.80658154  1
  C  C469  1  0.52560114  0.21703392  0.74209620  1
  H  H470  1  0.52316419  0.19907383  0.53654129  1
  C  C471  1  0.58912607  0.45464669  0.97592152  1
  C  C472  1  0.51856123  0.15642804  0.80586898  1
  H  H473  1  0.57427532  0.05907295  0.96889988  1
  H  H474  1  0.50485021  0.29057479  0.61589696  1
  N  N475  1  0.68697967  0.01220537  0.87828013  1
  C  C476  1  0.71280625  0.21876091  0.95919393  1
  C  C477  1  0.71702137  0.01915406  0.92974368  1
  C  C478  1  0.55378247  0.02291574  0.93059382  1
  C  C479  1  0.53969584  0.42779540  0.50144779  1
  C  C480  1  0.59605456  0.89082768  0.12193565  1
  H  H481  1  0.68438462  0.85375433  0.47200291  1
  H  H482  1  0.70542425  0.82668935  0.11399879  1
  C  C483  1  0.69316254  0.65047651  0.31616454  1
  N  N484  1  0.61383808  0.87681148  0.02313200  1
  N  N485  1  0.63687007  0.70401238  0.31455817  1
  H  H486  1  0.58376406  0.59980639  0.29157327  1
  C  C487  1  0.74153501  0.86104298  0.24442858  1
  O  O488  1  0.52611144  0.62586414  0.40180568  1
  H  H489  1  0.50970979  0.65105667  0.07635839  1
  Zn  Zn490  1  0.58328922  0.71812199  0.34121276  1
  C  C491  1  0.72461600  0.60443767  0.30537598  1
  H  H492  1  0.55311164  0.52437695  0.13586894  1
  C  C493  1  0.52142536  0.63668463  0.30389307  1
  C  C494  1  0.63568842  0.59069569  0.22172792  1
  C  C495  1  0.73130152  0.81590500  0.15850312  1
  C  C496  1  0.60728278  0.94921227  0.31422464  1
  H  H497  1  0.59215830  0.90865525  0.36172556  1
  C  C498  1  0.74958844  0.61081674  0.06023187  1
  C  C499  1  0.58274261  0.53129766  0.14895223  1
  O  O500  1  0.54312468  0.67724875  0.24958970  1
  C  C501  1  0.71898816  0.53183034  0.30094146  1
  N  N502  1  0.56210103  0.86344985  0.13635800  1
  N  N503  1  0.60372391  0.79283123  0.44384056  1
  H  H504  1  0.54754536  0.88285893  0.20332014  1
  C  C505  1  0.61421740  0.94828508  0.19466949  1
  H  H506  1  0.57855628  0.71158121  0.00987463  1
  N  N507  1  0.69525785  0.71091847  0.36502911  1
  H  H508  1  0.68598320  0.55957651  0.15119178  1
  C  C509  1  0.55598596  0.82720302  0.04289069  1
  O  O510  1  0.71988559  0.95758094  0.34990725  1
  O  O511  1  0.51875859  0.87727210  0.31893549  1
  C  C512  1  0.65739608  0.54977860  0.14887180  1
  C  C513  1  0.52309958  0.96910638  0.46044702  1
  O  O514  1  0.68480316  0.91168880  0.20940405  1
  C  C515  1  0.65500188  0.64602387  0.28068552  1
  C  C516  1  0.71648164  0.91496125  0.27926537  1
  H  H517  1  0.69273234  0.51031441  0.32050039  1
  C  C518  1  0.52209825  0.78992612  0.02024489  1
  H  H519  1  0.71160442  0.73793409  0.42115001  1
  C  C520  1  0.63946382  0.79673978  0.43796584  1
  C  C521  1  0.59881854  0.57684269  0.22479387  1
  H  H522  1  0.67094276  0.94743429  0.24690285  1
  C  C523  1  0.66123079  0.74096129  0.37105801  1
  C  C524  1  0.51094665  0.90592798  0.40422770  1
  H  H525  1  0.74411448  0.64719183  0.12652416  1
  H  H526  1  0.74797513  0.72973865  0.05584951  1
  C  C527  1  0.64262855  0.50541262  0.07047798  1
  N  N528  1  0.63294872  0.99544892  0.13595474  1
  H  H529  1  0.71554385  0.99724897  0.01919159  1
  H  H530  1  0.55540052  0.83234475  0.49390724  1
  H  H531  1  0.62263186  0.99574152  0.46620072  1
  O  O532  1  0.60206433  0.55506730  0.70697628  1
  C  C533  1  0.67829048  0.79617143  0.89735578  1
  C  C534  1  0.73032921  0.53262821  0.90683480  1
  C  C535  1  0.71059965  0.83219422  0.89805816  1
  C  C536  1  0.53821065  0.93129636  0.78235344  1
  O  O537  1  0.67049373  0.53620286  0.85130496  1
  C  C538  1  0.65716576  0.84724576  0.50236976  1
  C  C539  1  0.68137745  0.72313136  0.87229453  1
  H  H540  1  0.53847118  0.77330176  0.84524858  1
  C  C541  1  0.61294507  0.61022839  0.66119890  1
  C  C542  1  0.55956805  0.98796462  0.82324561  1
  H  H543  1  0.53701406  0.59647354  0.71025640  1
  C  C544  1  0.51164283  0.98982649  0.57156293  1
  C  C545  1  0.61549091  0.79301166  0.78290972  1
  O  O546  1  0.62393541  0.61031092  0.56578810  1
  C  C547  1  0.63893412  0.89813051  0.56468332  1
  H  H548  1  0.65718755  0.69218014  0.86957707  1
  H  H549  1  0.54285919  0.90056350  0.70180066  1
  H  H550  1  0.58583895  0.92180064  0.62894924  1
  C  C551  1  0.59808566  0.78253348  0.88875081  1
  H  H552  1  0.62470353  0.84546307  0.75647428  1
  H  H553  1  0.68417719  0.58371355  0.60519852  1
  H  H554  1  0.70156844  0.80509889  0.65428981  1
  H  H555  1  0.65436730  0.82320401  0.91861784  1
  C  C556  1  0.70024121  0.51341153  0.83071957  1
  C  C557  1  0.60134531  0.88768134  0.57295640  1
  H  H558  1  0.58727059  0.60930095  0.87116533  1
  C  C559  1  0.62008775  0.73848480  0.70665805  1
  C  C560  1  0.59520641  0.66258588  0.84636195  1
  C  C561  1  0.60859118  0.67301853  0.73811105  1
  C  C562  1  0.58755057  0.83795355  0.97287862  1
  H  H563  1  0.62914443  0.74564034  0.61937448  1
  H  H564  1  0.54400051  0.73228518  0.66540379  1
  H  H565  1  0.65454645  0.93863827  0.61219155  1
  C  C566  1  0.70368440  0.62778760  0.59444005  1
  C  C567  1  0.58952974  0.71489736  0.92319969  1
  C  C568  1  0.51518255  0.76904804  0.90633847  1
  C  C569  1  0.71484645  0.69416658  0.84286655  1
  H  H570  1  0.66429420  0.69016623  0.65404884  1
  C  C571  1  0.51588816  0.62800209  0.67193281  1
  C  C572  1  0.71147632  0.75472718  0.62389315  1
  N  N573  1  0.74572325  0.75298799  0.59469118  1
  H  H574  1  0.72327017  0.63931787  0.81933347  1
  C  C575  1  0.52079433  0.69961273  0.64627727  1
  C  C576  1  0.69188983  0.69339273  0.63159649  1
  H  H577  1  0.71132496  0.88761420  0.92041405  1
  C  C578  1  0.50563669  0.92417764  0.83620848  1
  H  H579  1  0.74663164  0.96627852  0.73972797  1
  C  C580  1  0.74280963  0.79564439  0.87465419  1
  C  C581  1  0.73879550  0.62551965  0.55521062  1
  Zn  Zn582  1  0.64108931  0.98113540  0.96924026  1
  C  C583  1  0.72379570  0.58593581  0.98564413  1
  N  N584  1  0.74645493  0.72788994  0.83751985  1
  H  H585  1  0.69802374  0.61458873  0.99171926  1
  C  C586  1  0.58492630  0.83859589  0.50186791  1
  O  O587  1  0.80162132  0.41095372  0.18160596  1
  N  N588  1  0.96493859  0.18902100  0.16871218  1
  C  C589  1  0.88973767  0.08712076  0.27815505  1
  C  C590  1  0.91132385  0.36800447  0.36459985  1
  C  C591  1  0.83305037  0.01681954  0.23020284  1
  C  C592  1  0.90585877  0.23882263  0.08488163  1
  C  C593  1  0.88674876  0.25215462  0.18521829  1
  H  H594  1  0.92964047  0.49782043  0.32711304  1
  H  H595  1  0.92811056  0.12137295  0.19604482  1
  Zn  Zn596  1  0.94743704  0.17662535  0.33930069  1
  C  C597  1  0.97677012  0.34685352  0.32618958  1
  C  C598  1  0.87138106  0.02589672  0.22576842  1
  H  H599  1  0.83524276  0.28728388  0.26106222  1
  H  H600  1  0.88181103  0.40501915  0.22102978  1
  C  C601  1  0.94591285  0.34307337  0.39293001  1
  H  H602  1  0.90200460  0.24989038  0.26939443  1
  C  C603  1  0.93488360  0.40786901  0.05907417  1
  C  C604  1  0.97179771  0.37096403  0.21724782  1
  C  C605  1  0.93787973  0.39028123  0.18191468  1
  H  H606  1  0.88987192  0.37092144  0.42519711  1
  C  C607  1  0.90811031  0.39003947  0.25431819  1
  C  C608  1  0.99118203  0.15833560  0.11081936  1
  C  C609  1  0.83677072  0.28173337  0.07663426  1
  C  C610  1  0.94675763  0.22559063  0.08397339  1
  O  O611  1  0.87763118  0.12552206  0.34454561  1
  H  H612  1  0.95208204  0.07875168  0.48998359  1
  C  C613  1  0.81151065  0.46723165  0.21555108  1
  O  O614  1  0.90469324  0.42538917  0.01818378  1
  O  O615  1  0.93163002  0.08884398  0.26268891  1
  C  C616  1  0.85111873  0.27405875  0.18506312  1
  H  H617  1  0.81827606  0.05052967  0.29018118  1
  N  N618  1  0.94993035  0.23553140  0.48996867  1
  O  O619  1  0.84425448  0.48267818  0.22179449  1
  H  H620  1  0.99515364  0.37299130  0.16133482  1
  O  O621  1  0.76698831  0.19505236  0.21284801  1
  H  H622  1  0.80960162  0.30272514  0.06091982  1
  O  O623  1  0.96185462  0.40926003  0.00407580  1
  H  H624  1  0.98698023  0.03545026  0.00713371  1
  Zn  Zn625  1  0.92052308  0.22503268  0.84323703  1
  H  H626  1  0.93176097  0.49313596  0.90599610  1
  H  H627  1  0.76575832  0.10737308  0.73146813  1
  H  H628  1  0.99085213  0.41355279  0.85885457  1
  N  N629  1  0.91610923  0.13942295  0.73243927  1
  C  C630  1  0.93183069  0.14001585  0.63026179  1
  C  C631  1  0.93534165  0.41204733  0.78859522  1
  C  C632  1  0.85836203  0.26550411  0.98033764  1
  N  N633  1  0.93909656  0.26470465  0.67442029  1
  H  H634  1  0.98032498  0.14500458  0.75434070  1
  O  O635  1  0.77906647  0.47537928  0.53915752  1
  C  C636  1  0.94186687  0.32715512  0.62179007  1
  C  C637  1  0.93409819  0.07797214  0.56521605  1
  C  C638  1  0.80538960  0.43367439  0.69494821  1
  O  O639  1  0.81734842  0.13594198  0.85902261  1
  C  C640  1  0.93836531  0.39493380  0.66822518  1
  C  C641  1  0.91556378  0.01842292  0.58871896  1
  C  C642  1  0.89639228  0.09002573  0.75695364  1
  N  N643  1  0.89054344  0.24153519  0.98407653  1
  H  H644  1  0.93680301  0.37290695  0.85418339  1
  C  C645  1  0.79756283  0.37162101  0.68762793  1
  O  O646  1  0.83400001  0.45514277  0.79262703  1
  C  C647  1  0.82217531  0.17864407  0.79265461  1
  H  H648  1  0.85016983  0.27034311  0.88953824  1
  H  H649  1  0.80912623  0.33625793  0.74501357  1
  H  H650  1  0.88492879  0.09246217  0.84200464  1
  H  H651  1  0.82339300  0.04347575  0.76084165  1
  C  C652  1  0.94530939  0.21043123  0.59359127  1
  C  C653  1  0.94177630  0.45178331  0.59176183  1
  N  N654  1  0.95936516  0.22090075  0.97608830  1
  C  C655  1  0.89200857  0.02887014  0.68374689  1
  H  H656  1  0.77761561  0.35271881  0.62687135  1
  O  O657  1  0.82746073  0.22035840  0.72052268  1
  H  H658  1  0.76971096  0.45985206  0.84970094  1
  C  C659  1  0.79377321  0.48819265  0.62243573  1
  H  H660  1  0.76893906  0.05959374  0.92795425  1
  C  C661  1  0.94796094  0.30521672  0.50423697  1
  C  C662  1  0.93589736  0.48076488  0.82045857  1
  H  H663  1  0.94318775  0.43453687  0.50041874  1
  C  C664  1  0.98820151  0.18064264  0.99038941  1
  C  C665  1  0.92370385  0.55177499  0.36056556  1
  H  H666  1  0.76361117  0.89853168  0.01629082  1
  H  H667  1  0.89138470  0.88319192  0.07179047  1
  C  C668  1  0.97839755  0.65036555  0.13616985  1
  C  C669  1  0.88336514  0.83411035  0.39335894  1
  C  C670  1  0.99097601  0.56248052  0.35923152  1
  H  H671  1  0.86596718  0.55155903  0.36189777  1
  H  H672  1  0.81523938  0.60429378  0.29335900  1
  C  C673  1  0.93698578  0.87368104  0.47342425  1
  N  N674  1  0.84787079  0.71325565  0.16090525  1
  C  C675  1  0.81334280  0.69613127  0.14699031  1
  C  C676  1  0.78666213  0.74813644  0.18210528  1
  C  C677  1  0.86835338  0.66564855  0.10442182  1
  C  C678  1  0.75999040  0.63017093  0.31355726  1
  C  C679  1  0.83619013  0.91905524  0.10170820  1
  C  C680  1  0.95719720  0.59483927  0.10517981  1
  C  C681  1  0.77429972  0.85053426  0.30481294  1
  C  C682  1  0.78801293  0.58463440  0.29214655  1
  H  H683  1  0.86445801  0.82366524  0.32758200  1
  C  C684  1  0.96297791  0.71479743  0.16641738  1
  H  H685  1  0.97379356  0.68438881  0.45933186  1
  H  H686  1  0.76778175  0.68525372  0.32973702  1
  C  C687  1  0.92655915  0.72186340  0.14842032  1
  H  H688  1  0.97912558  0.75816139  0.20320450  1
  C  C689  1  0.79604443  0.79370216  0.27606820  1
  C  C690  1  0.90775673  0.66470050  0.11016929  1
  H  H691  1  0.91259956  0.73314604  0.49789116  1
  C  C692  1  0.95014038  0.65548458  0.43872282  1
  N  N693  1  0.82034130  0.64949007  0.47783341  1
  C  C694  1  0.88529906  0.64261864  0.43473941  1
  C  C695  1  0.88964089  0.57650004  0.38553359  1
  H  H696  1  0.92445755  0.89278596  0.29958122  1
  C  C697  1  0.78537422  0.58546604  0.04748319  1
  H  H698  1  0.96350237  0.54053774  0.10345980  1
  H  H699  1  0.91460977  0.76762427  0.18949532  1
  H  H700  1  0.81801164  0.78122562  0.32839038  1
  C  C701  1  0.95383195  0.58992428  0.38878549  1
  N  N702  1  0.92282118  0.60042922  0.09199483  1
  C  C703  1  0.81504859  0.62900174  0.09092910  1
  Zn  Zn704  1  0.87255723  0.50485320  0.07256607  1
  C  C705  1  0.91578699  0.86732829  0.37743558  1
  C  C706  1  0.91673096  0.68022237  0.46188895  1
  O  O707  1  0.99438374  0.51548517  0.29208945  1
  N  N708  1  0.84916124  0.60698149  0.06926552  1
  H  H709  1  0.78431128  0.89217983  0.36918735  1
  C  C710  1  0.85180111  0.67768928  0.46489418  1
  C  C711  1  0.78147831  0.51573198  0.25834413  1
  C  C712  1  0.87431376  0.92234177  0.11231199  1
  O  O713  1  0.98525491  0.93210743  0.37579395  1
  C  C714  1  0.97319849  0.91319345  0.46532312  1
  C  C715  1  0.81464184  0.96771300  0.16932573  1
  H  H716  1  0.81222747  0.59944197  0.46769512  1
  C  C717  1  0.75368528  0.75993750  0.13045224  1
  H  H718  1  0.92071298  0.98585811  0.15932078  1
  C  C719  1  0.89143726  0.97737375  0.16872959  1
  H  H720  1  0.78589976  0.96244618  0.16992338  1
  C  C721  1  0.82022170  0.87757567  0.00936537  1
  H  H722  1  0.88543153  0.80125795  0.68064375  1
  C  C723  1  0.80326468  0.94046226  0.70625748  1
  C  C724  1  0.76804369  0.93232221  0.70948332  1
  H  H725  1  0.94499710  0.56518012  0.56015108  1
  C  C726  1  0.88758330  0.89406005  0.87606417  1
  C  C727  1  0.98280900  0.85423667  0.82817386  1
  C  C728  1  0.87200925  0.82805655  0.89634405  1
  N  N729  1  0.80860617  0.79002557  0.87313403  1
  H  H730  1  0.85984081  0.65933774  0.66691573  1
  Zn  Zn731  1  0.78964239  0.84332839  0.62738678  1
  H  H732  1  0.91819573  0.97035262  0.54224778  1
  C  C733  1  0.77818343  0.82351808  0.90558562  1
  C  C734  1  0.92803484  0.85134985  0.58278736  1
  O  O735  1  0.94449791  0.65059494  0.69107994  1
  C  C736  1  0.79125400  0.52676868  0.97839046  1
  C  C737  1  0.83438473  0.82375559  0.93398716  1
  N  N738  1  0.81243072  0.76150565  0.53709528  1
  H  H739  1  0.93711485  0.94944502  0.84038241  1
  H  H740  1  0.86497020  0.92268606  0.64947202  1
  C  C741  1  0.79682128  0.69706180  0.52562359  1
  C  C742  1  0.93092851  0.77565058  0.88143745  1
  C  C743  1  0.94179949  0.51979414  0.61812887  1
  H  H744  1  0.87568844  0.63432539  0.80083634  1
  H  H745  1  0.88473745  0.71651584  0.91952843  1
  C  C746  1  0.94160492  0.60863201  0.76061387  1
  C  C747  1  0.82956924  0.57349564  0.73499674  1
  C  C748  1  0.93865545  0.53389129  0.73600159  1
  C  C749  1  0.92326814  0.90192309  0.85925083  1
  O  O750  1  0.86257692  0.53873856  0.87900760  1
  N  N751  1  0.78586630  0.87351800  0.98713104  1
  O  O752  1  0.94245133  0.62904336  0.87693041  1
  C  C753  1  0.94496285  0.84314152  0.85733118  1
  C  C754  1  0.75808634  0.68898354  0.55714750  1
  C  C755  1  0.85128588  0.63768456  0.74655664  1
  Zn  Zn756  1  0.80120708  0.66218581  0.81081675  1
  O  O757  1  0.80931019  0.56146998  0.65012550  1
  O  O758  1  0.99265363  0.91590180  0.81343125  1
  H  H759  1  0.94526300  0.86254959  0.65474476  1
  H  H760  1  0.94932827  0.72978731  0.88426289  1
  H  H761  1  0.87028672  0.94036913  0.87866282  1
  C  C762  1  0.89532612  0.76860130  0.90216673  1
  H  H763  1  0.93618074  0.58928226  0.91876658  1
  C  C764  1  0.89509896  0.81930204  0.59849955  1
  C  C765  1  0.86409244  0.97602785  0.68667236  1
  C  C766  1  0.84224715  0.51860667  0.80567922  1
  C  C767  1  0.76432679  0.50192012  0.90930607  1
  C  C768  1  0.83092981  0.99428525  0.72934219  1
  H  H769  1  0.81697594  0.50195718  0.98805517  1
  O  O770  1  0.98761185  0.92959403  0.55057161  1
  H  H771  1  0.75350193  0.57829939  0.54394253  1
  C  C772  1  0.84604134  0.74952187  0.50598620  1
  C  C773  1  0.87291422  0.80856889  0.50002434  1
