# generated using pymatgen
data_CuH10C20NO4
_symmetry_space_group_name_H-M   'P 1'
_cell_length_a   41.41803597
_cell_length_b   18.43618578
_cell_length_c   33.84976133
_cell_angle_alpha   90.00000000
_cell_angle_beta   90.00000000
_cell_angle_gamma   90.00000000
_symmetry_Int_Tables_number   1
_chemical_formula_structural   CuH10C20NO4
_chemical_formula_sum   'Cu48 H480 C960 N48 O192'
_cell_volume   25847.35976128
_cell_formula_units_Z   48
loop_
 _symmetry_equiv_pos_site_id
 _symmetry_equiv_pos_as_xyz
  1  'x, y, z'
loop_
 _atom_site_type_symbol
 _atom_site_label
 _atom_site_symmetry_multiplicity
 _atom_site_fract_x
 _atom_site_fract_y
 _atom_site_fract_z
 _atom_site_occupancy
  C  C0  1  0.08502658  0.11739458  0.04907457  1
  N  N1  1  0.07151542  0.08555401  0.11039580  1
  C  C2  1  0.05789703  0.09012848  0.07206260  1
  C  C3  1  0.05051968  0.08211968  0.14382737  1
  C  C4  1  0.10443095  0.09443552  0.11324538  1
  C  C5  1  0.11435032  0.12043011  0.07339466  1
  H  H6  1  0.12175774  0.06234730  0.17311217  1
  C  C7  1  0.02874961  0.06885960  0.05163767  1
  C  C8  1  0.02501174  0.08457123  0.01161020  1
  C  C9  1  0.12813909  0.08008120  0.14220255  1
  C  C10  1  0.14596959  0.14225652  0.06384554  1
  H  H11  1  0.14188355  0.21189453  0.14497197  1
  C  C12  1  0.04173214  0.05931167  0.21433931  1
  C  C13  1  0.13309516  0.32360768  0.16578350  1
  H  H14  1  0.08814532  0.19700435  0.14944904  1
  C  C15  1  0.08441148  0.23368282  0.17602239  1
  C  C16  1  0.15148411  0.26831059  0.14603257  1
  C  C17  1  0.10238739  0.29709298  0.18609878  1
  C  C18  1  0.01742111  0.10670970  0.14122392  1
  H  H19  1  0.04190415  0.17065572  0.19647140  1
  C  C20  1  0.05844308  0.21618810  0.20048360  1
  C  C21  1  0.00909332  0.08233742  0.21066070  1
  H  H22  1  0.15336277  0.16507831  0.03566998  1
  C  C23  1  0.09352994  0.34524438  0.21701384  1
  H  H24  1  0.00742331  0.11778205  0.11197273  1
  H  H25  1  0.00855022  0.04400037  0.07062755  1
  C  C26  1  0.08178332  0.12784662  0.00767087  1
  C  C27  1  0.16060103  0.08669993  0.13038322  1
  C  C28  1  0.06182739  0.06192982  0.18057200  1
  H  H29  1  0.10791314  0.39565374  0.21830575  1
  H  H30  1  0.13305253  0.43808095  0.18550890  1
  H  H31  1  0.05294229  0.04639856  0.24373776  1
  H  H32  1  0.08840635  0.04929835  0.18537066  1
  C  C33  1  0.14441396  0.39628682  0.16733730  1
  O  O34  1  0.11230787  0.02590220  0.24943117  1
  C  C35  1  0.06777277  0.32783656  0.24295610  1
  C  C36  1  0.05237477  0.26115967  0.23462938  1
  H  H37  1  0.00716694  0.37167083  0.24313575  1
  H  H38  1  0.17032547  0.49237644  0.08438017  1
  C  C39  1  0.16792846  0.11898598  0.09364152  1
  H  H40  1  0.19086787  0.24935580  0.10378923  1
  C  C41  1  0.17822379  0.28840500  0.12266145  1
  C  C42  1  0.17255380  0.41357320  0.14734645  1
  H  H43  1  0.18037505  0.07032807  0.15191227  1
  N  N44  1  0.21917687  0.37657888  0.10417948  1
  C  C45  1  0.20235315  0.12641507  0.08228720  1
  O  O46  1  0.22253301  0.09738011  0.10581361  1
  O  O47  1  0.20966974  0.15596260  0.05070419  1
  Cu  Cu48  1  0.25050313  0.14628867  0.03406749  1
  O  O49  1  0.28533350  0.07795491  0.09671514  1
  C  C50  1  0.26067636  0.28215421  0.12672939  1
  C  C51  1  0.18943659  0.36099925  0.12483664  1
  C  C52  1  0.24903431  0.34523399  0.10722989  1
  H  H53  1  0.24334814  0.23869152  0.13531947  1
  O  O54  1  0.28651254  0.18190727  0.06339085  1
  C  C55  1  0.29361568  0.27458807  0.13654305  1
  C  C56  1  0.30615047  0.39204951  0.10315722  1
  C  C57  1  0.30040041  0.12978410  0.08088570  1
  C  C58  1  0.27347918  0.40004144  0.09469116  1
  H  H59  1  0.30330986  0.22740842  0.15301824  1
  C  C60  1  0.31494909  0.33068414  0.12446114  1
  C  C61  1  0.22061284  0.44743788  0.08833057  1
  H  H62  1  0.23842812  0.35998221  0.03517095  1
  H  H63  1  0.29445891  0.31253875  0.02596685  1
  C  C64  1  0.25405939  0.46487623  0.08075916  1
  H  H65  1  0.18286535  0.46839950  0.15210864  1
  Cu  Cu66  1  0.24829860  0.02578714  0.08137242  1
  H  H67  1  0.32179716  0.43875345  0.09622679  1
  C  C68  1  0.27780078  0.02400986  0.01581676  1
  O  O69  1  0.27462640  0.08670553  0.00042319  1
  C  C70  1  0.27529509  0.29273942  0.00633755  1
  C  C71  1  0.24427420  0.31764036  0.01098176  1
  C  C72  1  0.33658176  0.03439288  0.00808776  1
  H  H73  1  0.49493390  0.17423527  0.04459498  1
  H  H74  1  0.49541874  0.06395939  0.04704206  1
  H  H75  1  0.49568465  0.00407275  0.21251449  1
  H  H76  1  0.49588493  0.30629691  0.02632111  1
  C  C77  1  0.49098660  0.15039525  0.20249341  1
  C  C78  1  0.49799348  0.38156223  0.12177954  1
  H  H79  1  0.48764907  0.39241299  0.09167207  1
  C  C80  1  0.49096543  0.32420128  0.18859742  1
  H  H81  1  0.48792153  0.14839372  0.13970010  1
  C  C82  1  0.35000273  0.05817739  0.09733664  1
  C  C83  1  0.47859525  0.34953589  0.15350715  1
  O  O84  1  0.41095932  0.49513656  0.19572934  1
  C  C85  1  0.35216461  0.18340553  0.06734243  1
  C  C86  1  0.45543417  0.17229162  0.20144377  1
  C  C87  1  0.34962370  0.32527209  0.13496250  1
  O  O88  1  0.42189878  0.44092461  0.04499810  1
  H  H89  1  0.42836707  0.05816864  0.14692814  1
  C  C90  1  0.44403106  0.34967793  0.14378766  1
  H  H91  1  0.39250869  0.33403994  0.04993571  1
  C  C92  1  0.44571373  0.40248203  0.03031242  1
  Cu  Cu93  1  0.40302932  0.22926648  0.16096406  1
  O  O94  1  0.44035210  0.17979077  0.16724550  1
  C  C95  1  0.41335804  0.29831653  0.04562636  1
  Cu  Cu96  1  0.38984894  0.43915996  0.16330026  1
  H  H97  1  0.34125645  0.23039473  0.05514764  1
  Cu  Cu98  1  0.41731396  0.46543528  0.09896778  1
  C  C99  1  0.41323458  0.22282785  0.05411233  1
  C  C100  1  0.44349061  0.32177500  0.03578975  1
  H  H101  1  0.33552972  0.00896760  0.10328298  1
  O  O102  1  0.36072549  0.26881768  0.15172192  1
  C  C103  1  0.40248094  0.11227031  0.08443651  1
  O  O104  1  0.36655774  0.37974273  0.12902472  1
  C  C105  1  0.36711471  0.00325541  0.01223575  1
  O  O106  1  0.42339328  0.32220167  0.16723862  1
  C  C107  1  0.47220265  0.28050033  0.03414272  1
  N  N108  1  0.43669532  0.11550332  0.07790941  1
  C  C109  1  0.45842889  0.06659732  0.09436474  1
  O  O110  1  0.44198980  0.18503938  0.23183664  1
  C  C111  1  0.48929628  0.04446995  0.07609327  1
  C  C112  1  0.45134645  0.04120357  0.13308710  1
  C  C113  1  0.33584494  0.12423400  0.08302839  1
  C  C114  1  0.38397872  0.05146383  0.09702588  1
  C  C115  1  0.44336411  0.17688017  0.05591860  1
  C  C116  1  0.38662448  0.17760660  0.07091371  1
  O  O117  1  0.43494301  0.37231869  0.11027694  1
  H  H118  1  0.47586016  0.29624599  0.20909987  1
  C  C119  1  0.46330657  0.48744432  0.22680990  1
  O  O120  1  0.47122850  0.42828568  0.02130147  1
  C  C121  1  0.47281677  0.20723291  0.04411917  1
  C  C122  1  0.40016340  0.02677637  0.00335308  1
  C  C123  1  0.04082462  0.06765075  0.34967446  1
  H  H124  1  0.08607535  0.12952722  0.27346390  1
  C  C125  1  0.06564688  0.06960680  0.32282690  1
  C  C126  1  0.06600212  0.12704151  0.29477849  1
  C  C127  1  0.04108349  0.18095875  0.29257015  1
  N  N128  1  0.03269203  0.23763553  0.26701458  1
  C  C129  1  0.01457807  0.17416299  0.32095554  1
  C  C130  1  0.01781013  0.12338987  0.35120372  1
  H  H131  1  0.08399322  0.02892200  0.32262990  1
  H  H132  1  0.01763058  0.02030216  0.28345757  1
  C  C133  1  0.00662713  0.27671274  0.27970494  1
  H  H134  1  0.05904508  0.36309147  0.26564930  1
  C  C135  1  0.03689724  0.00579910  0.37811868  1
  O  O136  1  0.01331730  0.00500979  0.40477014  1
  H  H137  1  0.47669380  0.49195316  0.43725482  1
  C  C138  1  0.46951201  0.44875482  0.29388841  1
  C  C139  1  0.49381369  0.46253134  0.41921462  1
  H  H140  1  0.45875162  0.42931600  0.32132055  1
  H  H141  1  0.47448602  0.49506797  0.36462090  1
  H  H142  1  0.42202865  0.45582003  0.26430187  1
  C  C143  1  0.44966239  0.46236892  0.26255573  1
  C  C144  1  0.49459913  0.46658954  0.37851102  1
  H  H145  1  0.04378930  0.45018070  0.69857302  1
  C  C146  1  0.01277048  0.43093357  0.58595839  1
  O  O147  1  0.07376790  0.30673139  0.72677186  1
  H  H148  1  0.04993168  0.46206821  0.62611317  1
  H  H149  1  0.09986488  0.49430361  0.72184046  1
  H  H150  1  0.01178334  0.37200851  0.59725191  1
  O  O151  1  0.10759187  0.21328770  0.73030469  1
  C  C152  1  0.03410760  0.48167576  0.60124075  1
  Cu  Cu153  1  0.10011473  0.11549259  0.74199620  1
  O  O154  1  0.14506155  0.08542192  0.74528722  1
  C  C155  1  0.01004393  0.10044522  0.74682254  1
  C  C156  1  0.09490926  0.27374231  0.74213543  1
  H  H157  1  0.25920236  0.02134230  0.71730138  1
  C  C158  1  0.21006138  0.03487392  0.73901618  1
  H  H159  1  0.18087304  0.05106844  0.64119687  1
  H  H160  1  0.23754192  0.07583749  0.64648822  1
  H  H161  1  0.20092478  0.06268047  0.71266216  1
  H  H162  1  0.27848597  0.08590565  0.62413969  1
  C  C163  1  0.29729212  0.04880822  0.63346609  1
  C  C164  1  0.23105829  0.01791689  0.64984856  1
  O  O165  1  0.25420957  0.22540546  0.71635141  1
  O  O166  1  0.30507963  0.23170465  0.71266060  1
  C  C167  1  0.32935601  0.06416451  0.62582917  1
  C  C168  1  0.28106001  0.21584639  0.73110836  1
  C  C169  1  0.19777726  0.00509576  0.64611165  1
  C  C170  1  0.24144663  0.00996741  0.74092636  1
  H  H171  1  0.48510242  0.37344474  0.50876363  1
  C  C172  1  0.35403926  0.00970681  0.63258678  1
  O  O173  1  0.40606060  0.37249185  0.73396915  1
  C  C174  1  0.49709459  0.35902570  0.64732002  1
  C  C175  1  0.44874329  0.35264420  0.68836520  1
  O  O176  1  0.45395434  0.33022504  0.57365994  1
  C  C177  1  0.41889300  0.38706900  0.70084275  1
  H  H178  1  0.33507446  0.11681103  0.61183341  1
  H  H179  1  0.45057996  0.29636034  0.74558995  1
  C  C180  1  0.41093740  0.21742274  0.60604817  1
  C  C181  1  0.44853980  0.13382086  0.57325748  1
  H  H182  1  0.49172975  0.43628162  0.57702530  1
  H  H183  1  0.45577348  0.47102364  0.73275299  1
  C  C184  1  0.46573804  0.38098722  0.65509383  1
  O  O185  1  0.40724030  0.43720534  0.67816923  1
  H  H186  1  0.40009109  0.00330333  0.67670436  1
  O  O187  1  0.48762817  0.25482599  0.55156786  1
  Cu  Cu188  1  0.37392349  0.49515481  0.69408516  1
  H  H189  1  0.47068465  0.12283181  0.55484791  1
  C  C190  1  0.43936583  0.20322675  0.58395881  1
  C  C191  1  0.46197176  0.26476089  0.56919145  1
  H  H192  1  0.36913443  0.17354486  0.63795926  1
  H  H193  1  0.36553959  0.07229598  0.73058937  1
  H  H194  1  0.40612843  0.27644172  0.61065244  1
  C  C195  1  0.42792081  0.07426614  0.58270559  1
  C  C196  1  0.39097066  0.16163988  0.61860937  1
  H  H197  1  0.45166147  0.40905208  0.63097570  1
  C  C198  1  0.39904111  0.09048038  0.60807802  1
  N  N199  1  0.38444981  0.02167560  0.61516516  1
  C  C200  1  0.49309021  0.27880437  0.70776791  1
  C  C201  1  0.35592026  0.02035118  0.74207951  1
  C  C202  1  0.46331659  0.30896348  0.71770792  1
  Cu  Cu203  1  0.09262091  0.15534757  0.87903746  1
  C  C204  1  0.13296066  0.37170272  0.84731883  1
  C  C205  1  0.03986397  0.26323865  0.86380255  1
  O  O206  1  0.06414774  0.22626018  0.85104207  1
  C  C207  1  0.11208295  0.41251223  0.81914159  1
  H  H208  1  0.03183743  0.12340522  0.84886605  1
  O  O209  1  0.04197189  0.32215122  0.88192757  1
  N  N210  1  0.13428660  0.41336898  0.88170855  1
  O  O211  1  0.13788825  0.16485835  0.88456552  1
  O  O212  1  0.07527552  0.15172887  0.92958779  1
  H  H213  1  0.02497454  0.33067562  0.80312103  1
  C  C214  1  0.05042494  0.11837133  0.94609652  1
  O  O215  1  0.14245362  0.10943354  0.94334579  1
  C  C216  1  0.13608589  0.27504578  0.79767211  1
  C  C217  1  0.14281702  0.31503221  0.92802825  1
  C  C218  1  0.09769107  0.37816754  0.78725794  1
  H  H219  1  0.12377772  0.28328936  0.91254766  1
  O  O220  1  0.03596547  0.45199917  0.82524887  1
  Cu  Cu221  1  0.05011354  0.42504393  0.87238016  1
  C  C222  1  0.11154563  0.30858196  0.77709125  1
  H  H223  1  0.02833723  0.34004861  0.94827371  1
  O  O224  1  0.02836413  0.09763941  0.92744900  1
  C  C225  1  0.00868230  0.15215655  0.85200864  1
  H  H226  1  0.03894515  0.18638378  0.77667738  1
  C  C227  1  0.00874913  0.22665032  0.86280503  1
  C  C228  1  0.14694336  0.30445430  0.83436673  1
  O  O229  1  0.03006453  0.45721424  0.91723709  1
  C  C230  1  0.15106330  0.38883582  0.91644631  1
  H  H231  1  0.07910978  0.40469727  0.76971559  1
  C  C232  1  0.15614944  0.05049249  0.77460641  1
  O  O233  1  0.07414537  0.03729614  0.85136428  1
  O  O234  1  0.06533860  0.07594353  0.77126811  1
  C  C235  1  0.01551414  0.16993588  0.76265860  1
  O  O236  1  0.13842282  0.03323162  0.80323470  1
  C  C237  1  0.15370726  0.13190230  0.91150530  1
  H  H238  1  0.14793869  0.22323321  0.78622206  1
  C  C239  1  0.10453597  0.48200291  0.83913181  1
  C  C240  1  0.00211994  0.33301688  0.94941256  1
  C  C241  1  0.00551993  0.46521607  0.82165327  1
  H  H242  1  0.10302160  0.14710696  0.99083298  1
  H  H243  1  0.00243614  0.22218319  0.97130303  1
  Cu  Cu244  1  0.09215129  0.02545131  0.80243368  1
  Cu  Cu245  1  0.12033615  0.02363745  0.94061894  1
  H  H246  1  0.16485268  0.28085900  0.85362509  1
  C  C247  1  0.05312958  0.10738704  0.99049006  1
  C  C248  1  0.11801397  0.47855038  0.87939147  1
  H  H249  1  0.15575514  0.22671962  0.96562760  1
  C  C250  1  0.16215156  0.28346719  0.95628249  1
  H  H251  1  0.00211901  0.07390133  0.99602867  1
  C  C252  1  0.03938294  0.04960403  0.75277496  1
  H  H253  1  0.32231509  0.00684677  0.82474036  1
  C  C254  1  0.30496285  0.01348374  0.88681248  1
  C  C255  1  0.17394481  0.43196088  0.93700225  1
  H  H256  1  0.19177046  0.06106883  0.96040623  1
  C  C257  1  0.18805252  0.11440972  0.90363084  1
  H  H258  1  0.18717863  0.17357993  0.84815254  1
  C  C259  1  0.20085278  0.13857920  0.86878393  1
  C  C260  1  0.25432482  0.17305767  0.79399552  1
  C  C261  1  0.23280522  0.11687407  0.86165976  1
  N  N262  1  0.28251374  0.06582035  0.87532052  1
  C  C263  1  0.25592668  0.13369979  0.82923038  1
  C  C264  1  0.28814809  0.10800302  0.84207662  1
  C  C265  1  0.25043568  0.07227659  0.88907335  1
  C  C266  1  0.22683922  0.22154423  0.96306397  1
  C  C267  1  0.25791264  0.20739084  0.95226245  1
  H  H268  1  0.26588604  0.17580858  0.92718498  1
  H  H269  1  0.20663033  0.19792790  0.94403555  1
  C  C270  1  0.20648526  0.07264468  0.93350505  1
  C  C271  1  0.28342494  0.24591089  0.97294392  1
  C  C272  1  0.19514717  0.39498163  0.96309966  1
  C  C273  1  0.18989084  0.31903919  0.97218747  1
  C  C274  1  0.21883337  0.28082348  0.98975542  1
  C  C275  1  0.23674389  0.04740930  0.92653369  1
  H  H276  1  0.21719283  0.41974921  0.97177090  1
  C  C277  1  0.32195266  0.39373189  0.97364026  1
  H  H278  1  0.31414313  0.10174267  0.94968247  1
  H  H279  1  0.23209692  0.19410106  0.77885679  1
  N  N280  1  0.31364803  0.25930918  0.95615825  1
  C  C281  1  0.31778033  0.13037722  0.82320960  1
  C  C282  1  0.31489751  0.16535212  0.78628404  1
  C  C283  1  0.28407147  0.18134721  0.77409482  1
  H  H284  1  0.30392728  0.39064095  0.99788001  1
  C  C285  1  0.19037988  0.02634366  0.77205996  1
  H  H286  1  0.18058219  0.48676688  0.92627686  1
  C  C287  1  0.32992576  0.32533432  0.95625607  1
  H  H288  1  0.24928355  0.01006115  0.94625952  1
  H  H289  1  0.30691981  0.05931447  0.75120055  1
  C  C290  1  0.32299385  0.00994375  0.75157538  1
  O  O291  1  0.42317319  0.42408685  0.84119635  1
  C  C292  1  0.35842131  0.44891965  0.92902554  1
  O  O293  1  0.48341675  0.14995117  0.92986802  1
  H  H294  1  0.33533288  0.18704829  0.76888832  1
  H  H295  1  0.34094966  0.12192226  0.83797524  1
  C  C296  1  0.49580294  0.49628710  0.88592335  1
  C  C297  1  0.33523078  0.45846857  0.96110017  1
  Cu  Cu298  1  0.48206782  0.12646509  0.87609955  1
  C  C299  1  0.41297156  0.08498186  0.98115873  1
  H  H300  1  0.35610589  0.03476919  0.91147354  1
  C  C301  1  0.47505291  0.44803175  0.75421508  1
  C  C302  1  0.41201202  0.09378005  0.87656851  1
  C  C303  1  0.45723624  0.15152168  0.95186764  1
  C  C304  1  0.38750507  0.20698071  0.90193048  1
  C  C305  1  0.35875875  0.32306967  0.92981462  1
  H  H306  1  0.33336080  0.09181799  0.99865832  1
  H  H307  1  0.39523613  0.12366902  0.96927128  1
  C  C308  1  0.46443413  0.42548732  0.79215319  1
  C  C309  1  0.33375198  0.20964452  0.93710203  1
  Cu  Cu310  1  0.37761573  0.43798485  0.75811778  1
  O  O311  1  0.44231298  0.20638908  0.95250783  1
  Cu  Cu312  1  0.43232871  0.48265765  0.88993028  1
  C  C313  1  0.46502474  0.02424379  0.98401273  1
  H  H314  1  0.40941397  0.23451341  0.88960632  1
  H  H315  1  0.49035034  0.02670872  0.97331773  1
  O  O316  1  0.47518804  0.44914566  0.89301368  1
  H  H317  1  0.38619739  0.38623567  0.88673139  1
  C  C318  1  0.36275490  0.24448654  0.92160960  1
  C  C319  1  0.44538739  0.08331160  0.97301351  1
  C  C320  1  0.33419358  0.13188858  0.93504686  1
  C  C321  1  0.43229809  0.44298893  0.80776074  1
  O  O322  1  0.41234104  0.03082444  0.87078657  1
  C  C323  1  0.48350110  0.38640122  0.81966773  1
  C  C324  1  0.37042313  0.38568637  0.91188106  1
  C  C325  1  0.35789676  0.09491465  0.91393028  1
  C  C326  1  0.38414646  0.13213663  0.89941244  1
  H  H327  1  0.47277365  0.37233256  0.84867636  1
  O  O328  1  0.43501893  0.13706717  0.86498018  1
  O  O329  1  0.41524651  0.47770109  0.78290382  1
  H  H330  1  0.48676258  0.19221217  0.77716989  1
  N  N331  1  0.01862865  0.88569458  0.11479072  1
  C  C332  1  0.04384097  0.88601818  0.05190316  1
  C  C333  1  0.06940963  0.90021690  0.02477002  1
  C  C334  1  0.02677913  0.89228667  0.22644347  1
  C  C335  1  0.00908290  0.86863253  0.04629465  1
  C  C336  1  0.04810922  0.89433270  0.09516709  1
  C  C337  1  0.01272042  0.87637020  0.15561301  1
  C  C338  1  0.09776735  0.92987704  0.03926371  1
  C  C339  1  0.12541838  0.94692192  0.01259992  1
  C  C340  1  0.03143782  0.90864928  0.18635271  1
  C  C341  1  0.07891584  0.92278636  0.10997884  1
  C  C342  1  0.10209074  0.93813980  0.08094555  1
  H  H343  1  0.08298329  0.93392525  0.14062222  1
  H  H344  1  0.12274188  0.96210200  0.09278613  1
  H  H345  1  0.04804269  0.94929648  0.17739167  1
  O  O346  1  0.15023753  0.96744866  0.02816875  1
  C  C347  1  0.00199962  0.84483700  0.23755637  1
  O  O348  1  0.13433529  0.56352367  0.00095789  1
  H  H349  1  0.04170334  0.92054061  0.24929782  1
  C  C350  1  0.11081602  0.97910567  0.23158161  1
  H  H351  1  0.19065073  0.61564200  0.06971056  1
  C  C352  1  0.24181244  0.58327027  0.06403954  1
  C  C353  1  0.24958449  0.65434607  0.04821236  1
  O  O354  1  0.22634825  0.69834872  0.04211446  1
  O  O355  1  0.27850545  0.66885686  0.03768900  1
  H  H356  1  0.29088451  0.89263335  0.04082035  1
  C  C357  1  0.31290217  0.92204276  0.03650553  1
  C  C358  1  0.20837311  0.57262383  0.07420128  1
  Cu  Cu359  1  0.19241269  0.67598429  0.00985555  1
  H  H360  1  0.29110104  0.54227338  0.05819217  1
  C  C361  1  0.26644074  0.53052175  0.06593299  1
  O  O362  1  0.25348497  0.98977310  0.03062617  1
  C  C363  1  0.30893150  0.99280831  0.02021660  1
  C  C364  1  0.19693683  0.50433760  0.08159914  1
  C  C365  1  0.45941170  0.73103612  0.00316565  1
  H  H366  1  0.39525039  0.99818048  0.10126120  1
  C  C367  1  0.44220589  0.50188595  0.19394184  1
  C  C368  1  0.43250068  0.65094491  0.06348301  1
  C  C369  1  0.45448790  0.96529944  0.00698150  1
  C  C370  1  0.42145538  0.97044126  0.01959418  1
  C  C371  1  0.44014158  0.72496706  0.06953549  1
  C  C372  1  0.45209669  0.76793358  0.03882854  1
  O  O373  1  0.49765675  0.63295334  0.17681565  1
  O  O374  1  0.45279935  0.52907712  0.16281240  1
  C  C375  1  0.49220245  0.77140252  0.23147402  1
  N  N376  1  0.40193296  0.92708040  0.04462819  1
  C  C377  1  0.47191107  0.99923292  0.15609430  1
  H  H378  1  0.46656121  0.97533774  0.18545196  1
  Cu  Cu379  1  0.45751604  0.63168123  0.15936885  1
  H  H380  1  0.45571504  0.82960266  0.04230144  1
  C  C381  1  0.49572792  0.50613031  0.22332550  1
  C  C382  1  0.42991868  0.72470802  0.20432869  1
  C  C383  1  0.37065054  0.93142536  0.03207518  1
  O  O384  1  0.42114943  0.64315480  0.13098157  1
  H  H385  1  0.49141944  0.84504587  0.18241035  1
  C  C386  1  0.41644084  0.61434097  0.09824882  1
  C  C387  1  0.47844526  0.80241828  0.19875319  1
  H  H388  1  0.38248729  0.78375864  0.15670134  1
  C  C389  1  0.41087194  0.89573392  0.08130349  1
  C  C390  1  0.34312718  0.88949687  0.04401646  1
  H  H391  1  0.34431782  0.83307567  0.05846999  1
  C  C392  1  0.43793156  0.61022199  0.02897870  1
  H  H393  1  0.47094946  0.92116358  0.01241902  1
  C  C394  1  0.38937142  0.85622573  0.10700469  1
  H  H395  1  0.45928376  0.94928175  0.08168312  1
  H  H396  1  0.43190507  0.55179242  0.02682866  1
  C  C397  1  0.43437905  0.82099350  0.14870058  1
  H  H398  1  0.36456412  0.85387598  0.09862674  1
  C  C399  1  0.44735240  0.78149647  0.18442446  1
  H  H400  1  0.43485043  0.75143100  0.09804315  1
  H  H401  1  0.48066668  0.87073718  0.13437763  1
  C  C402  1  0.45448901  0.86636513  0.12648403  1
  C  C403  1  0.40063029  0.81662415  0.13906260  1
  H  H404  1  0.40611469  0.70740456  0.19238804  1
  C  C405  1  0.44398242  0.69734546  0.23996737  1
  H  H406  1  0.48314651  0.70979110  0.11169549  1
  O  O407  1  0.40031620  0.55797237  0.09318173  1
  C  C408  1  0.44376379  0.90616213  0.09392796  1
  C  C409  1  0.45480493  0.65097736  0.00109212  1
  H  H410  1  0.43492329  0.85087461  0.00091649  1
  C  C411  1  0.06260986  0.68424611  0.39899334  1
  H  H412  1  0.07268817  0.71786393  0.37533786  1
  C  C413  1  0.08327395  0.65306140  0.42751044  1
  H  H414  1  0.10965732  0.66604415  0.42762010  1
  C  C415  1  0.02939704  0.67017790  0.40419123  1
  C  C416  1  0.02073851  0.84254184  0.31173871  1
  H  H417  1  0.03769103  0.88398477  0.30615639  1
  C  C418  1  0.07072493  0.60364975  0.45502220  1
  C  C419  1  0.03867717  0.58267619  0.45942540  1
  H  H420  1  0.04210686  0.81895419  0.36749536  1
  C  C421  1  0.02197762  0.80178263  0.34628011  1
  O  O422  1  0.05625964  0.95776187  0.37511537  1
  Cu  Cu423  1  0.01244888  0.94369178  0.44867998  1
  H  H424  1  0.03282770  0.54375351  0.48444504  1
  O  O425  1  0.12242741  0.58117501  0.48323520  1
  C  C426  1  0.01847969  0.60967987  0.43088855  1
  C  C427  1  0.00101708  0.81800402  0.27939435  1
  O  O428  1  0.01337526  0.89075491  0.49337283  1
  C  C429  1  0.09327534  0.56767159  0.48598963  1
  C  C430  1  0.00383416  0.82589399  0.49406693  1
  N  N431  1  0.00167234  0.69701935  0.38581063  1
  C  C432  1  0.00201686  0.74028025  0.35167428  1
  Cu  Cu433  1  0.39745458  0.64478243  0.49290949  1
  C  C434  1  0.47251922  0.66232249  0.32160072  1
  C  C435  1  0.44171530  0.60911438  0.43782028  1
  O  O436  1  0.46227198  0.61248413  0.46544763  1
  Cu  Cu437  1  0.45697362  0.68588221  0.49843122  1
  H  H438  1  0.41864623  0.67796227  0.30832224  1
  O  O439  1  0.41271820  0.60067910  0.44819182  1
  C  C440  1  0.45031733  0.62126652  0.39621433  1
  C  C441  1  0.42722478  0.63913597  0.36681024  1
  N  N442  1  0.48903530  0.68575318  0.28877960  1
  C  C443  1  0.49417220  0.64388125  0.35445483  1
  C  C444  1  0.48398250  0.62265339  0.39135498  1
  C  C445  1  0.43811922  0.66077003  0.32979365  1
  H  H446  1  0.40193580  0.63530237  0.37500177  1
  H  H447  1  0.43009676  0.65551053  0.25310672  1
  C  C448  1  0.47455632  0.71925436  0.25566299  1
  C  C449  1  0.11386588  0.87969259  0.70289931  1
  C  C450  1  0.10364131  0.89844952  0.66198761  1
  H  H451  1  0.05245134  0.90717787  0.66007086  1
  C  C452  1  0.07459771  0.91445820  0.64281072  1
  C  C453  1  0.13812813  0.57792258  0.62395557  1
  C  C454  1  0.10587733  0.56160200  0.61455906  1
  C  C455  1  0.08169850  0.61291105  0.62290299  1
  N  N456  1  0.05214116  0.61618601  0.60013336  1
  C  C457  1  0.14908809  0.88557756  0.70200484  1
  C  C458  1  0.12098809  0.69060964  0.65491374  1
  C  C459  1  0.08932803  0.67682729  0.64542520  1
  H  H460  1  0.07381804  0.76770329  0.59540945  1
  C  C461  1  0.04279937  0.67666012  0.57716072  1
  C  C462  1  0.05323510  0.75060542  0.57718705  1
  C  C463  1  0.14669932  0.64475661  0.64250505  1
  C  C464  1  0.03664458  0.55555170  0.58776503  1
  C  C465  1  0.05909230  0.66172757  0.72983020  1
  C  C466  1  0.02812658  0.64146291  0.71733139  1
  C  C467  1  0.08392769  0.60807248  0.72793285  1
  C  C468  1  0.04025612  0.79766328  0.54886628  1
  C  C469  1  0.01747689  0.65515175  0.54814887  1
  C  C470  1  0.01386250  0.57625074  0.55533225  1
  H  H471  1  0.06969662  0.71916373  0.64855056  1
  H  H472  1  0.12596957  0.74570770  0.66762564  1
  C  C473  1  0.07145809  0.94058940  0.60378004  1
  C  C474  1  0.13192627  0.92157611  0.63837680  1
  H  H475  1  0.04738941  0.85492784  0.54990104  1
  C  C476  1  0.01685974  0.77221323  0.52164446  1
  C  C477  1  0.02470652  0.56481103  0.70828772  1
  N  N478  1  0.15744277  0.91083560  0.66425635  1
  C  C479  1  0.14259283  0.58479503  0.72232477  1
  H  H480  1  0.06445123  0.71486611  0.74322021  1
  C  C481  1  0.09702432  0.87789303  0.73918538  1
  H  H482  1  0.00702670  0.67661615  0.71860148  1
  C  C483  1  0.09939982  0.95753624  0.58225887  1
  C  C484  1  0.12998106  0.94660899  0.59814313  1
  C  C485  1  0.03832925  0.95080535  0.58634269  1
  H  H486  1  0.15301598  0.96503268  0.58390535  1
  H  H487  1  0.09573724  0.98143655  0.55044880  1
  O  O488  1  0.03979496  0.98854681  0.74050856  1
  O  O489  1  0.03651084  0.97878743  0.55104436  1
  H  H490  1  0.10104337  0.51302132  0.59691854  1
  C  C491  1  0.11766428  0.62204084  0.74374645  1
  O  O492  1  0.01577222  0.93698815  0.60667295  1
  H  H493  1  0.13958938  0.55112866  0.69545912  1
  C  C494  1  0.00361182  0.70340284  0.52055585  1
  H  H495  1  0.00677488  0.70110889  0.66666149  1
  C  C496  1  0.07937724  0.53166371  0.71839684  1
  C  C497  1  0.04899374  0.50861489  0.70763380  1
  H  H498  1  0.15763477  0.54284828  0.61260785  1
  H  H499  1  0.16515968  0.70171347  0.71083711  1
  H  H500  1  0.07104625  0.89155292  0.74252293  1
  O  O501  1  0.07974733  0.52362959  0.50701830  1
  C  C502  1  0.16793236  0.86737010  0.73591812  1
  C  C503  1  0.29000168  0.97811052  0.65106444  1
  C  C504  1  0.18132327  0.66510599  0.65258899  1
  H  H505  1  0.20522311  0.60928745  0.60212334  1
  C  C506  1  0.18969391  0.93284241  0.65490057  1
  H  H507  1  0.20046180  0.81815704  0.66434067  1
  H  H508  1  0.25834823  0.65088599  0.61831989  1
  C  C509  1  0.18516608  0.70149425  0.68927513  1
  C  C510  1  0.23800462  0.66870997  0.63774216  1
  H  H511  1  0.22069910  0.75737504  0.72403779  1
  C  C512  1  0.21637581  0.72675515  0.69762444  1
  C  C513  1  0.24322435  0.71505212  0.67179034  1
  N  N514  1  0.27510663  0.73996936  0.67592525  1
  C  C515  1  0.29757699  0.73399050  0.64522898  1
  C  C516  1  0.28974723  0.73818494  0.71364728  1
  C  C517  1  0.29246457  0.73659276  0.60396677  1
  C  C518  1  0.20854582  0.64341579  0.62849254  1
  H  H519  1  0.26846448  0.75102635  0.59100280  1
  H  H520  1  0.19481178  0.87564864  0.73438914  1
  C  C521  1  0.24366757  0.88922213  0.66582386  1
  H  H522  1  0.26078735  0.84828148  0.67322610  1
  C  C523  1  0.21071514  0.87315184  0.66268130  1
  H  H524  1  0.30961532  0.88782041  0.68352990  1
  C  C525  1  0.31510017  0.93323488  0.66518893  1
  H  H526  1  0.22661487  0.59966965  0.71565984  1
  C  C527  1  0.31938049  0.72439533  0.58073040  1
  H  H528  1  0.31667827  0.72621520  0.54807611  1
  H  H529  1  0.28249944  0.56994677  0.70359612  1
  C  C530  1  0.32498417  0.73166714  0.70705531  1
  C  C531  1  0.27590446  0.56855275  0.73381291  1
  C  C532  1  0.25420641  0.96177757  0.65662794  1
  C  C533  1  0.24382955  0.58758890  0.74082910  1
  C  C534  1  0.32974197  0.72434781  0.66304848  1
  H  H535  1  0.19241418  0.54173313  0.73105237  1
  C  C536  1  0.17241121  0.57836206  0.74092292  1
  C  C537  1  0.42949807  0.99592480  0.57805739  1
  H  H538  1  0.45692966  0.96720690  0.65220200  1
  H  H539  1  0.37670207  0.83755720  0.74841783  1
  C  C540  1  0.46970447  0.92007820  0.70889395  1
  H  H541  1  0.40352060  0.79191010  0.55840950  1
  H  H542  1  0.46506122  0.51023809  0.57870607  1
  C  C543  1  0.34813188  0.94701502  0.65645094  1
  C  C544  1  0.37405928  0.95356519  0.74429674  1
  C  C545  1  0.38916892  0.89200708  0.59134875  1
  C  C546  1  0.35496078  0.71151678  0.63622312  1
  C  C547  1  0.49585370  0.78919549  0.60755925  1
  C  C548  1  0.40054548  0.96483422  0.59850290  1
  C  C549  1  0.44748411  0.55416482  0.63586456  1
  C  C550  1  0.34629095  0.72473056  0.73763893  1
  C  C551  1  0.41771422  0.97186575  0.69413359  1
  C  C552  1  0.47124986  0.54039738  0.60620141  1
  C  C553  1  0.42365363  0.61097085  0.69415965  1
  C  C554  1  0.44885350  0.95422085  0.68122292  1
  O  O555  1  0.40369076  0.66096784  0.58273354  1
  O  O556  1  0.33556124  0.52612630  0.71576681  1
  O  O557  1  0.37499398  0.68967752  0.53024961  1
  C  C558  1  0.46035839  0.82311340  0.53665959  1
  H  H559  1  0.36620999  0.87079858  0.60117927  1
  O  O560  1  0.42830442  0.65030090  0.72572035  1
  H  H561  1  0.37887770  0.69671823  0.64932855  1
  C  C562  1  0.44838351  0.94834850  0.55688495  1
  C  C563  1  0.40926402  0.84779466  0.56932604  1
  O  O564  1  0.48700996  0.84043550  0.52311736  1
  C  C565  1  0.37823045  0.68304546  0.56918846  1
  O  O566  1  0.39678416  0.58914537  0.68435408  1
  C  C567  1  0.45249030  0.59660859  0.67084895  1
  O  O568  1  0.44796749  0.76071672  0.52956391  1
  H  H569  1  0.36753704  0.90614910  0.66386244  1
  C  C570  1  0.40916585  0.94702749  0.73266318  1
  H  H571  1  0.45636373  0.82078912  0.64966156  1
  C  C572  1  0.43902725  0.87594927  0.55501018  1
  H  H573  1  0.42204840  0.53982206  0.63041411  1
  H  H574  1  0.47145565  0.96404372  0.54308997  1
  H  H575  1  0.48117137  0.75493007  0.58844923  1
  C  C576  1  0.48490025  0.61491130  0.68051252  1
  C  C577  1  0.48123256  0.82471172  0.63890691  1
  H  H578  1  0.48741558  0.63656825  0.71102600  1
  C  C579  1  0.35090798  0.70835770  0.59510747  1
  H  H580  1  0.37264416  0.72206823  0.73216126  1
  H  H581  1  0.09243051  0.64947801  0.91161649  1
  O  O582  1  0.11715607  0.82269837  0.83960090  1
  C  C583  1  0.06033099  0.65899010  0.84408274  1
  C  C584  1  0.10243868  0.83936790  0.81111918  1
  C  C585  1  0.06050176  0.83172252  0.93137356  1
  C  C586  1  0.09576196  0.59946989  0.89379954  1
  C  C587  1  0.03984795  0.71654922  0.95406606  1
  C  C588  1  0.06890792  0.76176523  0.95048698  1
  C  C589  1  0.02552711  0.82789233  0.92399950  1
  C  C590  1  0.08120630  0.88346096  0.91631704  1
  H  H591  1  0.10756772  0.88468478  0.92052008  1
  Cu  Cu592  1  0.04508975  0.80084567  0.85087312  1
  O  O593  1  0.05303247  0.70909800  0.86851145  1
  O  O594  1  0.07005016  0.83432810  0.81066165  1
  C  C595  1  0.08268074  0.60270726  0.85447327  1
  C  C596  1  0.06288229  0.93679606  0.89576096  1
  O  O597  1  0.04703004  0.65609826  0.81041683  1
  C  C598  1  0.02899755  0.94414847  0.89230070  1
  C  C599  1  0.11370524  0.53986583  0.90574884  1
  H  H600  1  0.12099144  0.53543917  0.93606833  1
  H  H601  1  0.07919769  0.55347614  0.79669641  1
  C  C602  1  0.08830498  0.54607789  0.82756571  1
  C  C603  1  0.15232450  0.66974446  0.79555742  1
  C  C604  1  0.12266146  0.67184757  0.77569796  1
  H  H605  1  0.10313607  0.71061497  0.78355514  1
  O  O606  1  0.12184949  0.94564919  0.97456574  1
  C  C607  1  0.09834977  0.72630621  0.95997632  1
  H  H608  1  0.12165934  0.75491657  0.95488187  1
  C  C609  1  0.11652353  0.85838687  0.77077207  1
  N  N610  1  0.01549491  0.76305393  0.94052603  1
  C  C611  1  0.09866425  0.65603403  0.97674872  1
  H  H612  1  0.15372732  0.59324512  0.85890542  1
  C  C613  1  0.04002366  0.64400441  0.96828612  1
  C  C614  1  0.00947786  0.89089924  0.90795240  1
  C  C615  1  0.15047214  0.85217177  0.77096897  1
  H  H616  1  0.15992746  0.70236348  0.82216063  1
  O  O617  1  0.15615164  0.66177616  0.97983858  1
  H  H618  1  0.01883043  0.60865386  0.97032818  1
  C  C619  1  0.07052586  0.61658624  0.97976943  1
  Cu  Cu620  1  0.00445545  0.63980257  0.79808425  1
  H  H621  1  0.01893245  0.99329923  0.87968345  1
  C  C622  1  0.13072870  0.62223778  0.98863246  1
  H  H623  1  0.16154535  0.84019069  0.79880269  1
  O  O624  1  0.00042826  0.74260430  0.77984351  1
  O  O625  1  0.00406326  0.81948744  0.82979927  1
  C  C626  1  0.08334226  0.99379755  0.87694967  1
  O  O627  1  0.11236309  0.99827578  0.88861453  1
  H  H628  1  0.06586798  0.89483657  0.99300892  1
  H  H629  1  0.06781562  0.56284546  0.99147702  1
  H  H630  1  0.29122122  0.99349680  0.94926519  1
  C  C631  1  0.32656968  0.99072258  0.85564348  1
  H  H632  1  0.17226476  0.58915237  0.92876199  1
  C  C633  1  0.17500021  0.61993626  0.77729892  1
  C  C634  1  0.25085362  0.96732343  0.77401326  1
  N  N635  1  0.27928779  0.93334578  0.78318086  1
  C  C636  1  0.28852754  0.55409726  0.80463211  1
  C  C637  1  0.23258606  0.59999419  0.95864821  1
  O  O638  1  0.26172151  0.60807834  0.96733423  1
  H  H639  1  0.27572362  0.60106128  0.89755751  1
  C  C640  1  0.23968275  0.87520603  0.87361931  1
  H  H641  1  0.21630492  0.88521418  0.88955659  1
  C  C642  1  0.26381328  0.82958894  0.88914333  1
  O  O643  1  0.23390399  0.80068151  0.94609929  1
  C  C644  1  0.25739744  0.78780171  0.92700421  1
  O  O645  1  0.27937339  0.73974167  0.93793680  1
  C  C646  1  0.29287721  0.81175071  0.86962945  1
  C  C647  1  0.24613939  0.90441363  0.83650943  1
  C  C648  1  0.27796301  0.89047033  0.81732109  1
  C  C649  1  0.25759405  0.58025685  0.81349820  1
  C  C650  1  0.25011703  0.59770264  0.88905156  1
  N  N651  1  0.20348568  0.60366204  0.79773560  1
  C  C652  1  0.22343780  0.59817180  0.91578987  1
  C  C653  1  0.20415421  0.60391767  0.83945667  1
  C  C654  1  0.19038078  0.59325679  0.90655724  1
  C  C655  1  0.17925290  0.59902557  0.86758435  1
  C  C656  1  0.23896599  0.59644822  0.84917081  1
  C  C657  1  0.30255334  0.84912392  0.83521101  1
  H  H658  1  0.30854574  0.77179511  0.88480730  1
  H  H659  1  0.29112721  0.71637076  0.81144482  1
  C  C660  1  0.23390913  0.59012941  0.78146265  1
  C  C661  1  0.30093951  0.72393108  0.78285986  1
  C  C662  1  0.22980426  0.95398616  0.80894466  1
  H  H663  1  0.30659031  0.54155450  0.82884867  1
  C  C664  1  0.30874581  0.94157898  0.76169183  1
  O  O665  1  0.21131282  0.59373433  0.98438956  1
  C  C666  1  0.19931608  0.98925180  0.80707269  1
  H  H667  1  0.18245297  0.98378202  0.83106143  1
  C  C668  1  0.29755722  0.55255486  0.76525495  1
  H  H669  1  0.32495660  0.51172559  0.97030857  1
  H  H670  1  0.31729032  0.82191618  0.76022649  1
  H  H671  1  0.32713252  0.84378860  0.82305374  1
  C  C672  1  0.30637400  0.97848963  0.92471983  1
  H  H673  1  0.25224276  0.73406577  0.76044058  1
  C  C674  1  0.32706236  0.87586706  0.75923036  1
  Cu  Cu675  1  0.28043552  0.69725081  0.98520775  1
  C  C676  1  0.27770653  0.73130855  0.75257201  1
  C  C677  1  0.33039150  0.53122554  0.75310816  1
  C  C678  1  0.33207267  0.93056997  0.93086085  1
  C  C679  1  0.48955159  0.73083639  0.81058170  1
  O  O680  1  0.35092892  0.51183363  0.77689779  1
  C  C681  1  0.46328087  0.91170955  0.75126488  1
  H  H682  1  0.49580085  0.86648787  0.97447007  1
  C  C683  1  0.47690544  0.56642773  0.94393130  1
  O  O684  1  0.49265906  0.61021867  0.78480005  1
  C  C685  1  0.33429306  0.72572125  0.77662424  1
  C  C686  1  0.43208265  0.92578922  0.76273317  1
  O  O687  1  0.44690069  0.64635125  0.80848814  1
  H  H688  1  0.36612169  0.92729300  0.83904234  1
  O  O689  1  0.35898965  0.57679958  0.92168088  1
  H  H690  1  0.48639142  0.86085318  0.90192286  1
  C  C691  1  0.40384703  0.81668210  0.89024338  1
  Cu  Cu692  1  0.41109626  0.63981794  0.77588290  1
  C  C693  1  0.35096439  0.94094721  0.86327354  1
  O  O694  1  0.38725027  0.71715376  0.79954782  1
  H  H695  1  0.39592808  0.80466411  0.85950142  1
  H  H696  1  0.42487856  0.91855645  0.79401341  1
  H  H697  1  0.46288735  0.89538473  0.85341137  1
  C  C698  1  0.47025832  0.63257094  0.96324656  1
  C  C699  1  0.47778011  0.85232015  0.83807579  1
  H  H700  1  0.46997519  0.51286408  0.95390101  1
  O  O701  1  0.34887612  0.70691343  0.84399313  1
  C  C702  1  0.35685716  0.91476973  0.90264656  1
  C  C703  1  0.43093407  0.78416562  0.90719359  1
  C  C704  1  0.44505777  0.80017793  0.94464042  1
  C  C705  1  0.49192927  0.56485066  0.90814305  1
  C  C706  1  0.39909053  0.88009225  0.95393388  1
  C  C707  1  0.42651397  0.84619253  0.96972868  1
  H  H708  1  0.44476038  0.74329972  0.88870604  1
  C  C709  1  0.46788175  0.78462996  0.82375249  1
  C  C710  1  0.37134769  0.51585811  0.91131289  1
  H  H711  1  0.48034328  0.88322273  0.77029851  1
  C  C712  1  0.38580945  0.86784765  0.91454070  1
  Cu  Cu713  1  0.35541758  0.63936401  0.88076451  1
  H  H714  1  0.33629279  0.91396444  0.96052935  1
  C  C715  1  0.48132125  0.69993145  0.94388033  1
  N  N716  1  0.46822460  0.75783705  0.96548586  1
  C  C717  1  0.47573855  0.65909954  0.79955195  1
  C  C718  1  0.35783966  0.71705877  0.80845585  1
  O  O719  1  0.39195190  0.51373900  0.88456869  1
  H  H720  1  0.44091705  0.77328095  0.82367881  1
  H  H721  1  0.38666126  0.92194353  0.97110406  1
  C  C722  1  0.36031692  0.88524505  0.75287509  1
  C  C723  1  0.55695618  0.14274974  0.08516198  1
  C  C724  1  0.58389669  0.12762182  0.06060266  1
  C  C725  1  0.54197871  0.38307244  0.16862595  1
  N  N726  1  0.56817392  0.41075417  0.18750022  1
  C  C727  1  0.55684663  0.11139941  0.12348712  1
  C  C728  1  0.57249652  0.37661947  0.22418711  1
  C  C729  1  0.54420976  0.33214288  0.23380421  1
  H  H730  1  0.53799090  0.17585985  0.07311114  1
  C  C731  1  0.53582157  0.12054944  0.15763007  1
  H  H732  1  0.54421561  0.42178038  0.10657781  1
  C  C733  1  0.58594273  0.47289609  0.17379230  1
  C  C734  1  0.52382979  0.33756923  0.19759866  1
  O  O735  1  0.59952482  0.41903715  0.03561024  1
  C  C736  1  0.52902316  0.40007449  0.12932072  1
  C  C737  1  0.61165786  0.08651387  0.07206507  1
  C  C738  1  0.58784014  0.07851683  0.13597491  1
  C  C739  1  0.61425889  0.05967762  0.11058856  1
  H  H740  1  0.63079389  0.07673462  0.04940276  1
  C  C741  1  0.60922851  0.04600703  0.20055718  1
  C  C742  1  0.54157645  0.10684962  0.22984591  1
  C  C743  1  0.55472269  0.09385120  0.19177594  1
  N  N744  1  0.58373440  0.06645695  0.17653417  1
  C  C745  1  0.64265501  0.06025128  0.18952103  1
  H  H746  1  0.63306197  0.42794817  0.18128637  1
  C  C747  1  0.58323101  0.15726308  0.02038086  1
  H  H748  1  0.63337414  0.02056029  0.12223992  1
  C  C749  1  0.61953920  0.47206516  0.16869156  1
  C  C750  1  0.50968359  0.13240173  0.23575849  1
  C  C751  1  0.50388545  0.14161795  0.16482945  1
  H  H752  1  0.56480841  0.02662499  0.03883081  1
  H  H753  1  0.64948583  0.08027541  0.16087277  1
  C  C754  1  0.51111044  0.00720122  0.09981569  1
  C  C755  1  0.60348297  0.00930243  0.23822776  1
  C  C756  1  0.59462208  0.42770090  0.00161631  1
  O  O757  1  0.55822411  0.19539184  0.01092669  1
  H  H758  1  0.61928718  0.42061306  0.24291824  1
  C  C759  1  0.71195939  0.49239709  0.04013414  1
  C  C760  1  0.66734816  0.06316033  0.21727290  1
  H  H761  1  0.69081751  0.08266062  0.20882327  1
  O  O762  1  0.68721781  0.45792457  0.03560622  1
  C  C763  1  0.94566998  0.02782105  0.10239192  1
  C  C764  1  0.95683412  0.18657648  0.03249085  1
  C  C765  1  0.98583404  0.08096988  0.24495406  1
  C  C766  1  0.95545042  0.11399794  0.23969351  1
  C  C767  1  0.99745874  0.11201440  0.17394705  1
  C  C768  1  0.95979276  0.14284556  0.06525437  1
  H  H769  1  0.97034453  0.16596260  0.09125456  1
  H  H770  1  0.99387865  0.00008969  0.12424214  1
  C  C771  1  0.95009076  0.06854761  0.06388904  1
  H  H772  1  0.97267833  0.13391676  0.16642245  1
  C  C773  1  0.93486995  0.03673175  0.03145221  1
  H  H774  1  0.96242501  0.24550802  0.03463014  1
  C  C775  1  0.91203235  0.01564229  0.10927542  1
  H  H776  1  0.95184759  0.14612490  0.21335747  1
  H  H777  1  0.89716884  0.03085738  0.08467922  1
  H  H778  1  0.60845599  0.13282466  0.42283003  1
  O  O779  1  0.54098471  0.22400765  0.33581193  1
  C  C780  1  0.63889598  0.22421417  0.44276313  1
  C  C781  1  0.52190829  0.43001599  0.44012289  1
  C  C782  1  0.52227374  0.43828801  0.35783356  1
  H  H783  1  0.61349721  0.37526100  0.40851131  1
  O  O784  1  0.59076744  0.24854878  0.35031544  1
  C  C785  1  0.56795073  0.25164335  0.32870370  1
  N  N786  1  0.52770892  0.46015872  0.31787121  1
  C  C787  1  0.63226373  0.15827551  0.42342677  1
  C  C788  1  0.54687920  0.39626302  0.37862350  1
  H  H789  1  0.56855824  0.37166610  0.43542162  1
  C  C790  1  0.54735487  0.39434821  0.41952270  1
  H  H791  1  0.56413857  0.36613108  0.36219786  1
  C  C792  1  0.63704187  0.38449858  0.39503238  1
  H  H793  1  0.63292829  0.37379538  0.45468958  1
  C  C794  1  0.57128286  0.29977590  0.29145945  1
  H  H795  1  0.61820301  0.34753524  0.30789084  1
  H  H796  1  0.63834395  0.27767462  0.36675347  1
  C  C797  1  0.52276020  0.44747898  0.48372522  1
  C  C798  1  0.64134827  0.36614171  0.48504921  1
  C  C799  1  0.55718787  0.48704989  0.30459533  1
  H  H800  1  0.59427743  0.46133617  0.35082221  1
  C  C801  1  0.59953773  0.34036653  0.28433928  1
  H  H802  1  0.62066767  0.25358589  0.46050888  1
  C  C803  1  0.64926041  0.33044444  0.37085021  1
  C  C804  1  0.65298492  0.44931994  0.40364638  1
  C  C805  1  0.58915625  0.48658741  0.32237761  1
  C  C806  1  0.64929486  0.16590980  0.29080917  1
  H  H807  1  0.62392916  0.15798238  0.28513307  1
  H  H808  1  0.64270768  0.27290690  0.31236909  1
  C  C809  1  0.65540733  0.12472723  0.39758950  1
  C  C810  1  0.64250087  0.05083998  0.37985915  1
  C  C811  1  0.62677504  0.01962770  0.26781667  1
  C  C812  1  0.65697165  0.05446249  0.25803969  1
  C  C813  1  0.66076724  0.23214322  0.30486024  1
  H  H814  1  0.50048978  0.14176736  0.26548393  1
  C  C815  1  0.50385875  0.46374318  0.28991175  1
  O  O816  1  0.65859931  0.01002890  0.36015288  1
  H  H817  1  0.52309077  0.25574431  0.27871432  1
  C  C818  1  0.54294559  0.29152746  0.26978361  1
  C  C819  1  0.51828692  0.49432633  0.25382199  1
  H  H820  1  0.55640322  0.09766228  0.25633255  1
  O  O821  1  0.61574875  0.03575007  0.39144587  1
  C  C822  1  0.54783113  0.49815520  0.49039515  1
  H  H823  1  0.63752174  0.07302878  0.49434100  1
  O  O824  1  0.58867795  0.02542440  0.49981093  1
  C  C825  1  0.60030655  0.38205134  0.25004677  1
  H  H826  1  0.62294886  0.00826072  0.29947730  1
  O  O827  1  0.61072273  0.48230739  0.44207518  1
  C  C828  1  0.67151426  0.24894643  0.43877128  1
  Cu  Cu829  1  0.77470066  0.02745014  0.38372934  1
  C  C830  1  0.67355135  0.33856627  0.49095583  1
  C  C831  1  0.81382555  0.47469950  0.33658664  1
  C  C832  1  0.67240307  0.10897677  0.28423890  1
  C  C833  1  0.78461535  0.42488913  0.33138997  1
  N  N834  1  0.68885716  0.30186458  0.45896056  1
  C  C835  1  0.73049920  0.40822489  0.34744921  1
  C  C836  1  0.78627567  0.36310538  0.30815987  1
  H  H837  1  0.70694995  0.10038409  0.45967287  1
  C  C838  1  0.68511413  0.15314915  0.38865520  1
  C  C839  1  0.69506784  0.21486662  0.41068818  1
  H  H840  1  0.70243356  0.12408082  0.36998591  1
  C  C841  1  0.71973852  0.31244627  0.44286806  1
  C  C842  1  0.68001758  0.34763217  0.35430446  1
  C  C843  1  0.81076512  0.29766936  0.39139017  1
  C  C844  1  0.72490125  0.25445119  0.41478278  1
  O  O845  1  0.75174564  0.07678664  0.42475212  1
  C  C846  1  0.75447096  0.24971945  0.39433838  1
  H  H847  1  0.75880030  0.20922952  0.37087056  1
  C  C848  1  0.76623703  0.12233334  0.44898452  1
  O  O849  1  0.79410129  0.13489506  0.44477144  1
  C  C850  1  0.77757008  0.29827691  0.40728977  1
  N  N851  1  0.69975589  0.30753836  0.32855725  1
  C  C852  1  0.77496526  0.35271353  0.43708192  1
  C  C853  1  0.72943466  0.34150651  0.32257557  1
  C  C854  1  0.74488747  0.36238302  0.45490852  1
  H  H855  1  0.79567230  0.38593634  0.44325476  1
  C  C856  1  0.69382583  0.23744274  0.31523308  1
  O  O857  1  0.81485520  0.25159124  0.36669253  1
  C  C858  1  0.75744123  0.32213330  0.30084082  1
  O  O859  1  0.76204827  0.08048921  0.34431600  1
  C  C860  1  0.69824194  0.41368518  0.36654342  1
  H  H861  1  0.81810770  0.12657562  0.38169741  1
  C  C862  1  0.81796961  0.07383372  0.32245451  1
  H  H863  1  0.74102565  0.39960769  0.47872367  1
  H  H864  1  0.75597778  0.27814618  0.27870861  1
  C  C865  1  0.71804138  0.18301572  0.30634397  1
  H  H866  1  0.80905945  0.34347704  0.29711962  1
  C  C867  1  0.78241163  0.07696484  0.31422022  1
  H  H868  1  0.74251053  0.19152690  0.31683548  1
  C  C869  1  0.70682877  0.11675873  0.29153654  1
  C  C870  1  0.75756981  0.45078684  0.35266039  1
  C  C871  1  0.68485888  0.46544236  0.39225699  1
  H  H872  1  0.72395668  0.07260799  0.28536981  1
  C  C873  1  0.74835512  0.15222922  0.48420096  1
  C  C874  1  0.71636198  0.12978961  0.48557981  1
  H  H875  1  0.79631936  0.38726741  0.49805520  1
  O  O876  1  0.77352671  0.06754840  0.28141081  1
  C  C877  1  0.83173136  0.10496199  0.35599070  1
  H  H878  1  0.82234725  0.02665197  0.26446658  1
  O  O879  1  0.88307838  0.48857952  0.40655123  1
  O  O880  1  0.83467171  0.33809569  0.40551339  1
  C  C881  1  0.99316394  0.04212856  0.27985722  1
  C  C882  1  0.99243066  0.34381307  0.26565470  1
  C  C883  1  0.99327294  0.23824446  0.31448716  1
  C  C884  1  0.93367148  0.10916138  0.27142957  1
  O  O885  1  0.84228267  0.45506207  0.32423858  1
  C  C886  1  0.95291493  0.33283520  0.31674245  1
  O  O887  1  0.91266451  0.31370157  0.36479791  1
  C  C888  1  0.94951516  0.09652637  0.39611156  1
  O  O889  1  0.89049500  0.23747224  0.48861185  1
  O  O890  1  0.94228274  0.23702468  0.49737282  1
  C  C891  1  0.94758393  0.13854370  0.43013249  1
  H  H892  1  0.95537650  0.42019923  0.27130713  1
  C  C893  1  0.97210865  0.04067034  0.31196862  1
  C  C894  1  0.91842928  0.22099175  0.47655188  1
  C  C895  1  0.88266531  0.05784645  0.32663575  1
  C  C896  1  0.86866592  0.03022638  0.29173937  1
  C  C897  1  0.83575293  0.04357088  0.29032446  1
  Cu  Cu898  1  0.87787665  0.45267153  0.35580152  1
  C  C899  1  0.96642183  0.26952333  0.33282014  1
  C  C900  1  0.88779455  0.15652135  0.42495765  1
  C  C901  1  0.92505641  0.35506647  0.33813780  1
  H  H902  1  0.86582350  0.17950860  0.43802759  1
  C  C903  1  0.93862286  0.06534524  0.30484817  1
  C  C904  1  0.96620872  0.37153691  0.28372730  1
  Cu  Cu905  1  0.87547790  0.32464847  0.38861936  1
  C  C906  1  0.91816128  0.17045275  0.44255090  1
  C  C907  1  0.86545829  0.09321216  0.35934467  1
  C  C908  1  0.88927898  0.11708621  0.38972845  1
  N  N909  1  0.91607088  0.06391646  0.33565603  1
  H  H910  1  0.97067082  0.06359792  0.38920809  1
  H  H911  1  0.95686322  0.24022646  0.36085666  1
  H  H912  1  0.97724069  0.01260485  0.34029106  1
  C  C913  1  0.92099351  0.09390052  0.37291286  1
  O  O914  1  0.91751291  0.43436532  0.44604155  1
  O  O915  1  0.91149300  0.41257019  0.32592332  1
  H  H916  1  0.96921953  0.13693291  0.44941458  1
  H  H917  1  0.99782435  0.12378204  0.37308306  1
  C  C918  1  0.91066014  0.48675770  0.42320745  1
  H  H919  1  0.97392643  0.49574323  0.45501297  1
  H  H920  1  0.88275825  0.01239412  0.26519452  1
  Cu  Cu921  1  0.91140553  0.44278856  0.49964968  1
  H  H922  1  0.90896364  0.13450020  0.26621186  1
  C  C923  1  0.63425792  0.36271471  0.55626518  1
  C  C924  1  0.62036189  0.34414863  0.63014139  1
  C  C925  1  0.61232055  0.34073170  0.58847237  1
  C  C926  1  0.57982407  0.31867722  0.57840671  1
  H  H927  1  0.57365748  0.32054563  0.54730390  1
  C  C928  1  0.63438111  0.19054776  0.59404231  1
  H  H929  1  0.63094158  0.21904607  0.62162689  1
  C  C930  1  0.59837387  0.31631847  0.65704183  1
  C  C931  1  0.60853768  0.15569347  0.57635835  1
  H  H932  1  0.58367433  0.15766844  0.58816762  1
  H  H933  1  0.60589147  0.32137603  0.68883428  1
  H  H934  1  0.64212557  0.36743626  0.64178906  1
  H  H935  1  0.60023884  0.20651870  0.71170709  1
  C  C936  1  0.55734981  0.29971829  0.60632249  1
  C  C937  1  0.56677169  0.29484297  0.64716423  1
  C  C938  1  0.54741937  0.23474523  0.70777826  1
  N  N939  1  0.54226401  0.28012180  0.67556017  1
  C  C940  1  0.61168122  0.11676852  0.54076333  1
  H  H941  1  0.53375240  0.28015189  0.59562208  1
  C  C942  1  0.64096309  0.10793989  0.52096281  1
  C  C943  1  0.57520423  0.20614941  0.72662710  1
  C  C944  1  0.58331337  0.06977164  0.52886218  1
  C  C945  1  0.62210871  0.38261732  0.51781587  1
  C  C946  1  0.57256018  0.42922696  0.70334317  1
  H  H947  1  0.54800741  0.41233572  0.69363779  1
  C  C948  1  0.51139574  0.31152278  0.67480873  1
  C  C949  1  0.51601469  0.22914166  0.72915455  1
  O  O950  1  0.55962855  0.06688462  0.54880269  1
  C  C951  1  0.58251958  0.41204993  0.74297154  1
  H  H952  1  0.66351570  0.28524972  0.63721929  1
  H  H953  1  0.59899667  0.40792228  0.51172334  1
  C  C954  1  0.50646096  0.43151102  0.74263653  1
  C  C955  1  0.50535526  0.45319494  0.55136300  1
  H  H956  1  0.51437194  0.44741532  0.71192849  1
  H  H957  1  0.51031481  0.38253143  0.62317130  1
  C  C958  1  0.66528216  0.18194850  0.57284853  1
  H  H959  1  0.61787432  0.45982728  0.61506419  1
  H  H960  1  0.66326342  0.47537193  0.56443216  1
  C  C961  1  0.63345702  0.48265673  0.73444060  1
  C  C962  1  0.66590661  0.48915358  0.59551130  1
  C  C963  1  0.59129705  0.47496234  0.67946340  1
  C  C964  1  0.62327833  0.49374276  0.69313565  1
  H  H965  1  0.65797115  0.49849029  0.74474214  1
  C  C966  1  0.50187282  0.42197095  0.51536585  1
  H  H967  1  0.57942069  0.49438886  0.65052971  1
  C  C968  1  0.64154564  0.48558241  0.62202455  1
  C  C969  1  0.66453166  0.30194524  0.74367095  1
  H  H970  1  0.65902448  0.00090834  0.63638727  1
  O  O971  1  0.65350842  0.25499921  0.73203885  1
  C  C972  1  0.66739345  0.14331998  0.53576696  1
  C  C973  1  0.78362103  0.01809591  0.56473079  1
  C  C974  1  0.73399485  0.02530150  0.59607173  1
  C  C975  1  0.66853035  0.35739834  0.56188955  1
  H  H976  1  0.67881721  0.35713871  0.59304706  1
  H  H977  1  0.71181821  0.05986945  0.65420266  1
  C  C978  1  0.68866285  0.34638126  0.52930631  1
  C  C979  1  0.68942712  0.28149279  0.64321853  1
  N  N980  1  0.69671941  0.20014608  0.58403019  1
  C  C981  1  0.77415151  0.06648492  0.67208168  1
  C  C982  1  0.70105076  0.14755114  0.52106417  1
  H  H983  1  0.69210178  0.35867377  0.69346593  1
  C  C984  1  0.76014243  0.44108705  0.53464177  1
  C  C985  1  0.79267318  0.10522196  0.69866118  1
  C  C986  1  0.78431785  0.06974100  0.63141600  1
  H  H987  1  0.74922440  0.15480146  0.61567211  1
  H  H988  1  0.77471167  0.21067369  0.67722887  1
  C  C989  1  0.70736423  0.22845907  0.62065743  1
  C  C990  1  0.73731186  0.19783338  0.63382258  1
  C  C991  1  0.75168143  0.23122031  0.66575989  1
  C  C992  1  0.73678626  0.29290524  0.68423172  1
  C  C993  1  0.70427233  0.31715801  0.67493964  1
  H  H994  1  0.74038677  0.39076640  0.63474327  1
  C  C995  1  0.75138869  0.38806740  0.60473286  1
  C  C996  1  0.75779680  0.33801356  0.71048755  1
  C  C997  1  0.77448372  0.33717351  0.59462848  1
  H  H998  1  0.77996053  0.29256000  0.61492542  1
  H  H999  1  0.76546482  0.22771687  0.57432975  1
  C  C1000  1  0.79051419  0.34038999  0.55726291  1
  C  C1001  1  0.71849062  0.18508766  0.55386102  1
  C  C1002  1  0.78307963  0.38933274  0.52701035  1
  C  C1003  1  0.75278543  0.41588474  0.71177780  1
  H  H1004  1  0.72960993  0.43854414  0.70020202  1
  C  C1005  1  0.75126241  0.20577883  0.54882399  1
  C  C1006  1  0.81572196  0.28743206  0.55223232  1
  C  C1007  1  0.74368152  0.43988660  0.57483527  1
  H  H1008  1  0.80478039  0.37877401  0.65620738  1
  C  C1009  1  0.81113928  0.11456402  0.61880903  1
  H  H1010  1  0.82243486  0.10834370  0.59003595  1
  H  H1011  1  0.71479142  0.33101872  0.53342515  1
  C  C1012  1  0.82002034  0.14885244  0.68768779  1
  O  O1013  1  0.82078176  0.24566691  0.57980099  1
  H  H1014  1  0.78789245  0.09482079  0.73153553  1
  C  C1015  1  0.78525346  0.30205099  0.72913132  1
  C  C1016  1  0.77810416  0.46253842  0.72130882  1
  C  C1017  1  0.80719328  0.42506512  0.73234779  1
  N  N1018  1  0.76790543  0.03602862  0.59980902  1
  H  H1019  1  0.83068438  0.37600015  0.58898664  1
  C  C1020  1  0.80937578  0.34956777  0.74258304  1
  C  C1021  1  0.70881473  0.03514036  0.62363727  1
  C  C1022  1  0.82887925  0.15183359  0.64655764  1
  H  H1023  1  0.78667841  0.24169340  0.73245724  1
  C  C1024  1  0.82886169  0.40645121  0.65136615  1
  C  C1025  1  0.76618452  0.19255658  0.51232696  1
  H  H1026  1  0.75610672  0.03208262  0.68496438  1
  N  N1027  1  0.72184922  0.49663634  0.57868936  1
  O  O1028  1  0.83326474  0.28571548  0.51941432  1
  C  C1029  1  0.81717946  0.00896187  0.55471355  1
  H  H1030  1  0.79266687  0.20012417  0.50945905  1
  C  C1031  1  0.67874101  0.00192962  0.61515487  1
  C  C1032  1  0.74282830  0.49839249  0.51305079  1
  H  H1033  1  0.89786888  0.01560071  0.61979539  1
  H  H1034  1  0.89640662  0.33414163  0.70616842  1
  H  H1035  1  0.93334600  0.11220914  0.70502759  1
  C  C1036  1  0.86767046  0.00599627  0.70382705  1
  C  C1037  1  0.98398327  0.41390105  0.70543825  1
  H  H1038  1  0.99766928  0.40791314  0.73377170  1
  H  H1039  1  0.83599601  0.00566155  0.57921362  1
  H  H1040  1  0.85170608  0.17796207  0.63763582  1
  C  C1041  1  0.95528144  0.12415943  0.72184133  1
  O  O1042  1  0.92514609  0.28819513  0.60156298  1
  O  O1043  1  0.86372932  0.39966322  0.54663504  1
  C  C1044  1  0.87826282  0.48222344  0.67635996  1
  C  C1045  1  0.88136836  0.44111834  0.56899189  1
  C  C1046  1  0.87227584  0.44441516  0.60883222  1
  N  N1047  1  0.83683758  0.45517230  0.71983336  1
  Cu  Cu1048  1  0.87781078  0.31844763  0.52009166  1
  C  C1049  1  0.96920400  0.34961013  0.69060522  1
  C  C1050  1  0.95056134  0.41275820  0.63159649  1
  H  H1051  1  0.96966076  0.30244420  0.70919063  1
  C  C1052  1  0.86000777  0.48771702  0.74272128  1
  Cu  Cu1053  1  0.93245789  0.27202701  0.54993513  1
  H  H1054  1  0.85567208  0.02288950  0.64298735  1
  C  C1055  1  0.98149937  0.07664780  0.72744555  1
  C  C1056  1  0.89062216  0.48261495  0.63758144  1
  C  C1057  1  0.85561287  0.15318398  0.74837251  1
  C  C1058  1  0.95338597  0.35108375  0.65442798  1
  C  C1059  1  0.90039734  0.23396216  0.74288405  1
  H  H1060  1  0.94107948  0.41473331  0.60130116  1
  C  C1061  1  0.84194967  0.40792218  0.61404092  1
  C  C1062  1  0.99467554  0.45623467  0.55266540  1
  C  C1063  1  0.88608708  0.28256087  0.71490797  1
  C  C1064  1  0.85834903  0.25556693  0.69864567  1
  H  H1065  1  0.87195264  0.06542614  0.71022082  1
  H  H1066  1  0.92577978  0.04574109  0.55674508  1
  O  O1067  1  0.94902191  0.22021770  0.64632824  1
  O  O1068  1  0.90648603  0.46859938  0.55397389  1
  H  H1069  1  0.84761047  0.28106043  0.67159655  1
  H  H1070  1  0.97998108  0.01999741  0.71585272  1
  C  C1071  1  0.97247914  0.40140059  0.53482684  1
  C  C1072  1  0.96599623  0.47506386  0.64633389  1
  O  O1073  1  0.97085266  0.34008091  0.54968154  1
  C  C1074  1  0.84647363  0.44586345  0.68085144  1
  C  C1075  1  0.84388343  0.18860209  0.71305393  1
  C  C1076  1  0.98613338  0.47735560  0.68286818  1
  O  O1077  1  0.95606482  0.42113637  0.50509650  1
  C  C1078  1  0.94244188  0.27937828  0.63388200  1
  C  C1079  1  0.95728061  0.19167095  0.74382566  1
  H  H1080  1  0.53014707  0.31261583  0.89145605  1
  C  C1081  1  0.54985721  0.31746828  0.86803477  1
  C  C1082  1  0.54313273  0.33972500  0.82938656  1
  C  C1083  1  0.58058696  0.29220668  0.87744824  1
  O  O1084  1  0.56075025  0.26718002  0.94093642  1
  C  C1085  1  0.60635080  0.29043167  0.84993045  1
  C  C1086  1  0.51541682  0.36912343  0.80785470  1
  C  C1087  1  0.56937698  0.33339671  0.79964588  1
  C  C1088  1  0.58478219  0.26628036  0.91824698  1
  C  C1089  1  0.60158108  0.31203687  0.81101918  1
  C  C1090  1  0.52782322  0.39338623  0.76923754  1
  O  O1091  1  0.61297307  0.24463549  0.92856978  1
  H  H1092  1  0.63004696  0.26803683  0.86056632  1
  H  H1093  1  0.62012384  0.30758228  0.78702128  1
  N  N1094  1  0.56022028  0.37509631  0.76750683  1
  Cu  Cu1095  1  0.61958951  0.14948584  0.94298862  1
  O  O1096  1  0.56142285  0.11189570  0.83542077  1
  C  C1097  1  0.53691244  0.12731888  0.81888277  1
  H  H1098  1  0.56710033  0.04131508  0.95593112  1
  O  O1099  1  0.62885289  0.05113254  0.94224730  1
  H  H1100  1  0.55283461  0.04196467  0.88664579  1
  C  C1101  1  0.53939915  0.16355544  0.77923494  1
  H  H1102  1  0.59238992  0.16271597  0.78181481  1
  C  C1103  1  0.50968251  0.19036055  0.76322143  1
  H  H1104  1  0.62181785  0.42759176  0.78548796  1
  C  C1105  1  0.57030559  0.17370867  0.76313766  1
  O  O1106  1  0.50785779  0.10778562  0.83067187  1
  C  C1107  1  0.54248941  0.00105678  0.90485891  1
  C  C1108  1  0.61340320  0.43858361  0.75658274  1
  H  H1109  1  0.57575588  0.02535766  0.77817318  1
  H  H1110  1  0.57900499  0.47293801  0.92577519  1
  O  O1111  1  0.57224486  0.38565109  0.98381700  1
  Cu  Cu1112  1  0.56357850  0.29178413  0.99490636  1
  O  O1113  1  0.60617283  0.14585205  0.99766041  1
  C  C1114  1  0.65628626  0.01854769  0.93537310  1
  O  O1115  1  0.64015615  0.02392184  0.75309890  1
  O  O1116  1  0.51644891  0.49511842  0.85891221  1
  C  C1117  1  0.55049020  0.00013087  0.94472946  1
  C  C1118  1  0.60982167  0.49025256  0.97977271  1
  C  C1119  1  0.76418316  0.00739994  0.77231054  1
  O  O1120  1  0.67624710  0.04783506  0.91517078  1
  C  C1121  1  0.79675978  0.08782866  0.86355735  1
  C  C1122  1  0.75190432  0.17499467  0.77900226  1
  C  C1123  1  0.75617968  0.26309701  0.83152715  1
  C  C1124  1  0.74667530  0.24437410  0.79172555  1
  C  C1125  1  0.77561942  0.22295943  0.85638673  1
  C  C1126  1  0.74669502  0.33809377  0.84393155  1
  O  O1127  1  0.73070343  0.37055383  0.81984392  1
  O  O1128  1  0.75558553  0.36332545  0.87756867  1
  H  H1129  1  0.78453792  0.24647343  0.88428922  1
  C  C1130  1  0.78125468  0.15175012  0.84372308  1
  C  C1131  1  0.76794469  0.12756322  0.80561833  1
  Cu  Cu1132  1  0.79052957  0.42182826  0.88537149  1
  H  H1133  1  0.73387808  0.28340811  0.77139040  1
  O  O1134  1  0.80882814  0.40519950  0.93477115  1
  C  C1135  1  0.80938901  0.33789314  0.94830631  1
  N  N1136  1  0.77235100  0.05240216  0.80441219  1
  C  C1137  1  0.81932824  0.07838947  0.89381482  1
  O  O1138  1  0.78598320  0.30741954  0.95807012  1
  C  C1139  1  0.78893436  0.02628468  0.83764506  1
  O  O1140  1  0.82397805  0.40897543  0.85005550  1
  H  H1141  1  0.82486637  0.26888677  0.83192875  1
  H  H1142  1  0.69850515  0.48659064  0.95611788  1
  H  H1143  1  0.82881217  0.12788094  0.91025523  1
  C  C1144  1  0.83074550  0.00851462  0.89725958  1
  H  H1145  1  0.81785230  0.21076307  0.97740920  1
  H  H1146  1  0.71303647  0.04044680  0.76789718  1
  H  H1147  1  0.74117489  0.15925265  0.75164341  1
  C  C1148  1  0.73121062  0.00050282  0.75837857  1
  H  H1149  1  0.83042051  0.32782868  0.75712325  1
  C  C1150  1  0.99990721  0.45666208  0.92246222  1
  C  C1151  1  0.84130366  0.23688131  0.97212103  1
  C  C1152  1  0.99972521  0.34088269  0.79792656  1
  H  H1153  1  0.93641485  0.44449779  0.92869914  1
  C  C1154  1  0.94655845  0.30392547  0.77069307  1
  H  H1155  1  0.89855586  0.14719705  0.78554647  1
  H  H1156  1  0.84887687  0.14716829  0.83455565  1
  N  N1157  1  0.93389035  0.24507896  0.75014341  1
  C  C1158  1  0.91754577  0.25468099  0.86093419  1
  C  C1159  1  0.85054356  0.26400254  0.84172664  1
  C  C1160  1  0.95230440  0.42435032  0.79755112  1
  H  H1161  1  0.83808603  0.49039403  0.80096808  1
  H  H1162  1  0.98149226  0.32092481  0.87923713  1
  O  O1163  1  0.87195276  0.03446870  0.94277582  1
  C  C1164  1  0.90002334  0.23330182  0.96836642  1
  C  C1165  1  0.90921231  0.06433846  0.82922953  1
  C  C1166  1  0.88507873  0.17460486  0.76260975  1
  C  C1167  1  0.89908043  0.30910473  0.95439930  1
  C  C1168  1  0.98783867  0.26899167  0.96192296  1
  C  C1169  1  0.98770027  0.21454676  0.76131087  1
  H  H1170  1  0.90705647  0.38994692  0.77275645  1
  C  C1171  1  0.85452002  0.40191159  0.85480986  1
  C  C1172  1  0.95024175  0.14996634  0.85559849  1
  C  C1173  1  0.95117596  0.22702948  0.86629493  1
  C  C1174  1  0.93312301  0.33321388  0.95180039  1
  C  C1175  1  0.93061861  0.03598316  0.80007105  1
  O  O1176  1  0.87218207  0.45057868  0.86450277  1
  H  H1177  1  0.91450122  0.36615482  0.87717681  1
  H  H1178  1  0.86410765  0.04835784  0.86204509  1
  H  H1179  1  0.91735877  0.05943298  0.97010239  1
  C  C1180  1  0.90152214  0.32090528  0.86514619  1
  C  C1181  1  0.94835537  0.39529612  0.93868037  1
  C  C1182  1  0.98023486  0.26524289  0.87074394  1
  H  H1183  1  0.97946005  0.05549095  0.84327840  1
  C  C1184  1  0.86399453  0.19494079  0.84323267  1
  C  C1185  1  0.98021807  0.11302539  0.84959154  1
  C  C1186  1  0.95294364  0.26777716  0.96167205  1
  C  C1187  1  0.98240138  0.39324928  0.93746576  1
  H  H1188  1  0.86956702  0.40084366  0.93300268  1
  C  C1189  1  0.98060875  0.28914031  0.77698727  1
  H  H1190  1  0.95653466  0.05225381  0.79499277  1
  C  C1191  1  0.84297794  0.30553675  0.95584823  1
  H  H1192  1  0.84323335  0.10510356  0.76279027  1
  C  C1193  1  0.86912672  0.32489416  0.85293584  1
  N  N1194  1  0.91789368  0.12964936  0.84850741  1
  C  C1195  1  0.87772861  0.03504461  0.83637104  1
  H  H1196  1  0.94170971  0.47410520  0.80877886  1
  C  C1197  1  0.93236483  0.37378739  0.77998125  1
  C  C1198  1  0.89839268  0.18945764  0.85211676  1
  C  C1199  1  0.98614857  0.40786190  0.80576209  1
  C  C1200  1  0.87024167  0.34758306  0.94793159  1
  C  C1201  1  0.87045101  0.19848385  0.97910669  1
  N  N1202  1  0.93275186  0.21360241  0.97362073  1
  H  H1203  1  0.87067572  0.14017231  0.98945778  1
  C  C1204  1  0.94124890  0.15463131  0.99904558  1
  C  C1205  1  0.93026556  0.08132275  0.99733182  1
  C  C1206  1  0.52709129  0.76424279  0.10512537  1
  C  C1207  1  0.57339573  0.72826573  0.14920533  1
  N  N1208  1  0.58620277  0.81216445  0.10271699  1
  C  C1209  1  0.56095303  0.76762692  0.11487951  1
  C  C1210  1  0.54995953  0.68810426  0.16937756  1
  C  C1211  1  0.58196043  0.84962072  0.06628957  1
  C  C1212  1  0.61397306  0.79924278  0.12408417  1
  C  C1213  1  0.60875012  0.73966221  0.15231567  1
  C  C1214  1  0.63380187  0.71291510  0.17684229  1
  C  C1215  1  0.56749405  0.87244536  0.19380427  1
  H  H1216  1  0.62483838  0.88015308  0.20796896  1
  H  H1217  1  0.58747932  0.83464234  0.18705019  1
  C  C1218  1  0.56943010  0.80936247  0.03302685  1
  H  H1219  1  0.56961144  0.75133562  0.03096004  1
  H  H1220  1  0.63153026  0.66388590  0.19513275  1
  C  C1221  1  0.64581568  0.83028928  0.12238405  1
  C  C1222  1  0.55008319  0.90092930  0.16258134  1
  C  C1223  1  0.58260733  0.92475480  0.06702673  1
  H  H1224  1  0.55653577  0.65284358  0.19375158  1
  H  H1225  1  0.55799942  0.88554605  0.13136437  1
  C  C1226  1  0.51775956  0.67772023  0.15891149  1
  C  C1227  1  0.62020241  0.65645892  0.05937322  1
  C  C1228  1  0.56882184  0.96520486  0.03614510  1
  H  H1229  1  0.59654199  0.63626965  0.05026413  1
  H  H1230  1  0.54521376  0.73482961  0.24333208  1
  H  H1231  1  0.51739050  0.79854884  0.08201113  1
  C  C1232  1  0.63666022  0.70119051  0.03324318  1
  H  H1233  1  0.56676075  0.61366495  0.11089331  1
  C  C1234  1  0.61847347  0.57851102  0.12306819  1
  C  C1235  1  0.58364549  0.57520883  0.12684337  1
  C  C1236  1  0.63536681  0.63162244  0.09515823  1
  C  C1237  1  0.52196393  0.94430487  0.16900053  1
  H  H1238  1  0.57474926  0.56592143  0.21767340  1
  H  H1239  1  0.65173766  0.87835755  0.10330626  1
  H  H1240  1  0.58995741  0.95674373  0.09272066  1
  C  C1241  1  0.51422638  0.96142443  0.20914902  1
  C  C1242  1  0.50686362  0.71530271  0.12412408  1
  H  H1243  1  0.50468273  0.52425770  0.19463937  1
  C  C1244  1  0.56863391  0.52882720  0.15184111  1
  H  H1245  1  0.54235878  0.53075484  0.15481505  1
  C  C1246  1  0.55772655  0.88392880  0.23459134  1
  C  C1247  1  0.63197375  0.85709287  0.23659431  1
  C  C1248  1  0.50214623  0.98388176  0.13870610  1
  C  C1249  1  0.66468211  0.84359249  0.24514934  1
  C  C1250  1  0.53166399  0.93329831  0.24056674  1
  H  H1251  1  0.58013778  0.98659245  0.24733291  1
  C  C1252  1  0.66358059  0.74519498  0.17269736  1
  H  H1253  1  0.63761877  0.52490868  0.03161127  1
  O  O1254  1  0.63584345  0.58533013  0.24779963  1
  H  H1255  1  0.51634893  0.79070701  0.24178139  1
  H  H1256  1  0.62625723  0.71250179  0.00304321  1
  C  C1257  1  0.64106986  0.86046423  0.00441448  1
  H  H1258  1  0.62035790  0.84092651  0.02301558  1
  C  C1259  1  0.55548462  0.92321994  0.00382818  1
  C  C1260  1  0.55605454  0.84413490  0.00141119  1
  H  H1261  1  0.53637187  0.99820594  0.09071689  1
  C  C1262  1  0.63470515  0.52461057  0.14486339  1
  H  H1263  1  0.66048419  0.52039410  0.14318725  1
  C  C1264  1  0.57927922  0.54687421  0.24719396  1
  C  C1265  1  0.67008766  0.80572847  0.14589516  1
  C  C1266  1  0.66850578  0.72225225  0.04559641  1
  C  C1267  1  0.66686663  0.65434988  0.10632780  1
  H  H1268  1  0.68184012  0.83702466  0.22062951  1
  H  H1269  1  0.67657018  0.64008746  0.13568294  1
  O  O1270  1  0.68512682  0.66737737  0.22168244  1
  C  C1271  1  0.68474370  0.69729196  0.08033790  1
  C  C1272  1  0.68985337  0.72029804  0.19780462  1
  H  H1273  1  0.69416831  0.82649767  0.14232682  1
  H  H1274  1  0.70982271  0.71372344  0.08828386  1
  O  O1275  1  0.71728470  0.74972719  0.19442616  1
  C  C1276  1  0.79977638  0.73378113  0.17550142  1
  O  O1277  1  0.79103797  0.72129363  0.14257239  1
  H  H1278  1  0.73165209  0.65534815  0.04703356  1
  C  C1279  1  0.73966960  0.70071514  0.02609191  1
  O  O1280  1  0.78560833  0.70444021  0.20583438  1
  N  N1281  1  0.68545991  0.77019886  0.02015902  1
  C  C1282  1  0.71711816  0.75426915  0.01084603  1
  H  H1283  1  0.77052489  0.52610293  0.04707241  1
  Cu  Cu1284  1  0.75408971  0.75761205  0.23205602  1
  C  C1285  1  0.76496393  0.52836852  0.01489252  1
  H  H1286  1  0.79045039  0.67103612  0.03087804  1
  C  C1287  1  0.77152016  0.70998003  0.01856914  1
  C  C1288  1  0.82757887  0.78292653  0.18698547  1
  C  C1289  1  0.67212517  0.82837650  0.00027727  1
  O  O1290  1  0.71928696  0.51873817  0.07239789  1
  C  C1291  1  0.73398896  0.50904552  0.00272476  1
  C  C1292  1  0.96820306  0.99605229  0.13139759  1
  C  C1293  1  0.84328879  0.80089227  0.15093215  1
  H  H1294  1  0.92703066  0.98130914  0.03032816  1
  H  H1295  1  0.83390267  0.78322750  0.12173322  1
  C  C1296  1  0.99546527  0.86505597  0.08667023  1
  H  H1297  1  0.88294174  0.86280006  0.12374145  1
  C  C1298  1  0.96119441  0.85882998  0.09225991  1
  C  C1299  1  0.94167943  0.85296542  0.05847748  1
  H  H1300  1  0.97490270  0.79610201  0.14241778  1
  C  C1301  1  0.92179131  0.95419732  0.16985531  1
  C  C1302  1  0.95605195  0.95927025  0.16392744  1
  C  C1303  1  0.83824423  0.80345474  0.22438567  1
  C  C1304  1  0.98658775  0.82819375  0.16664342  1
  H  H1305  1  0.91530314  0.84902318  0.06154635  1
  C  C1306  1  0.98104087  0.81613089  0.20628368  1
  H  H1307  1  0.97275611  0.93290583  0.18485078  1
  H  H1308  1  0.96134745  0.77845061  0.21630915  1
  C  C1309  1  0.86761990  0.84213545  0.22769344  1
  C  C1310  1  0.87188330  0.84180936  0.15114611  1
  C  C1311  1  0.89853838  0.98384619  0.14213377  1
  C  C1312  1  0.95677515  0.85877900  0.02113318  1
  C  C1313  1  0.88100890  0.86815659  0.18982805  1
  N  N1314  1  0.90853892  0.90869090  0.19941482  1
  C  C1315  1  0.99003134  0.86947403  0.01357731  1
  H  H1316  1  0.87318165  0.97049844  0.14510133  1
  H  H1317  1  0.94992169  0.86974067  0.12089474  1
  C  C1318  1  0.91700325  0.90357050  0.23936630  1
  H  H1319  1  0.96626437  0.95124334  0.24358296  1
  C  C1320  1  0.61692613  0.65368948  0.33955418  1
  C  C1321  1  0.55937471  0.64719473  0.35204387  1
  C  C1322  1  0.58369907  0.66388660  0.32513253  1
  H  H1323  1  0.56446170  0.62661083  0.38137747  1
  C  C1324  1  0.58498480  0.84437637  0.37362436  1
  C  C1325  1  0.52786887  0.65910472  0.33874310  1
  C  C1326  1  0.55316780  0.84447936  0.38603995  1
  O  O1327  1  0.61807486  0.62770979  0.37418802  1
  C  C1328  1  0.58971738  0.84383509  0.33244769  1
  C  C1329  1  0.65195536  0.82628546  0.31676017  1
  C  C1330  1  0.54472573  0.84120619  0.42781202  1
  H  H1331  1  0.60431694  0.84747938  0.39578331  1
  C  C1332  1  0.61965254  0.84015771  0.30807703  1
  O  O1333  1  0.64088477  0.67256241  0.31998183  1
  C  C1334  1  0.56244810  0.84808422  0.30489061  1
  O  O1335  1  0.56979848  0.85002197  0.44915831  1
  C  C1336  1  0.62702669  0.74137389  0.46405116  1
  C  C1337  1  0.52625980  0.83856146  0.35908274  1
  O  O1338  1  0.63265068  0.73564805  0.42703502  1
  C  C1339  1  0.52968342  0.83967259  0.31913752  1
  O  O1340  1  0.65016807  0.56406622  0.43945085  1
  C  C1341  1  0.57960766  0.69081842  0.28667994  1
  C  C1342  1  0.60873857  0.84710750  0.26689711  1
  N  N1343  1  0.57453183  0.85841471  0.26726492  1
  H  H1344  1  0.52461295  0.94985119  0.27095023  1
  C  C1345  1  0.52271463  0.68606271  0.29821484  1
  O  O1346  1  0.51784931  0.82745225  0.44407814  1
  O  O1347  1  0.59834116  0.72959609  0.47626955  1
  C  C1348  1  0.54827079  0.70650305  0.27294879  1
  C  C1349  1  0.61015751  0.55557106  0.26338756  1
  H  H1350  1  0.66231288  0.82346809  0.34813729  1
  Cu  Cu1351  1  0.65981039  0.65904223  0.26858666  1
  Cu  Cu1352  1  0.65366557  0.64631058  0.40664442  1
  H  H1353  1  0.56157331  0.51314757  0.46430759  1
  Cu  Cu1354  1  0.51384596  0.77403935  0.49099893  1
  C  C1355  1  0.61366964  0.51580273  0.29994659  1
  C  C1356  1  0.65287260  0.75749357  0.49172224  1
  H  H1357  1  0.50812922  0.83078183  0.29917670  1
  H  H1358  1  0.50172530  0.83563271  0.37286212  1
  H  H1359  1  0.50240860  0.60965009  0.41544577  1
  H  H1360  1  0.60095114  0.70398301  0.26954691  1
  H  H1361  1  0.63885218  0.51072855  0.31075170  1
  Cu  Cu1362  1  0.57057905  0.80371986  0.49911849  1
  C  C1363  1  0.63654659  0.50194160  0.43164565  1
  C  C1364  1  0.55186249  0.51322693  0.26463093  1
  C  C1365  1  0.67304402  0.82522707  0.28374762  1
  H  H1366  1  0.68267517  0.66236398  0.48748522  1
  O  O1367  1  0.80902553  0.52769534  0.35582740  1
  C  C1368  1  0.80965872  0.96988926  0.44607509  1
  O  O1369  1  0.78842704  0.96110223  0.42010960  1
  O  O1370  1  0.71780202  0.78285053  0.32221510  1
  O  O1371  1  0.73452865  0.59861518  0.40163323  1
  O  O1372  1  0.69381081  0.66585516  0.41990649  1
  C  C1373  1  0.71733359  0.61788538  0.42740759  1
  H  H1374  1  0.68538964  0.78370789  0.44083282  1
  H  H1375  1  0.75466396  0.77299852  0.43127955  1
  C  C1376  1  0.71929421  0.58555088  0.46829893  1
  O  O1377  1  0.80569537  0.79587099  0.39677884  1
  C  C1378  1  0.76463437  0.78936010  0.45847486  1
  C  C1379  1  0.79727450  0.80648616  0.46539296  1
  C  C1380  1  0.68220977  0.78007997  0.47349967  1
  C  C1381  1  0.70774239  0.80434566  0.29196995  1
  C  C1382  1  0.81731355  0.80681464  0.42851637  1
  H  H1383  1  0.75021061  0.96942263  0.47408039  1
  C  C1384  1  0.74140229  0.52802503  0.47543117  1
  C  C1385  1  0.74408769  0.79253511  0.49172422  1
  C  C1386  1  0.69913865  0.61861673  0.49532988  1
  C  C1387  1  0.80093755  0.98043501  0.48753311  1
  O  O1388  1  0.72636721  0.81561909  0.26007767  1
  H  H1389  1  0.75779084  0.50076514  0.36961832  1
  H  H1390  1  0.69893793  0.51044579  0.40196938  1
  H  H1391  1  0.75852239  0.50685018  0.45331885  1
  C  C1392  1  0.76781441  0.98171416  0.49590593  1
  H  H1393  1  0.82670441  0.79178707  0.25273933  1
  C  C1394  1  0.70893719  0.78491189  0.49821795  1
  O  O1395  1  0.96171519  0.99145813  0.49182062  1
  H  H1396  1  0.89585730  0.60009172  0.38642158  1
  C  C1397  1  0.94660638  0.92377831  0.25849366  1
  H  H1398  1  0.96987082  0.92537305  0.31513548  1
  H  H1399  1  0.96147862  0.67932281  0.32360949  1
  C  C1400  1  0.97752211  0.72632995  0.32201155  1
  C  C1401  1  0.92222971  0.87833313  0.31877471  1
  O  O1402  1  0.83889612  0.97136523  0.43463191  1
  C  C1403  1  0.97490384  0.76648290  0.28767316  1
  C  C1404  1  0.96471367  0.54090404  0.43614686  1
  O  O1405  1  0.89658137  0.84499603  0.37791220  1
  O  O1406  1  0.84743995  0.82379540  0.43505474  1
  C  C1407  1  0.94118343  0.66163541  0.38324843  1
  O  O1408  1  0.98248729  0.80583171  0.47056370  1
  C  C1409  1  0.98356900  0.59811215  0.42378175  1
  Cu  Cu1410  1  0.86647936  0.90335659  0.40702039  1
  C  C1411  1  0.94847512  0.90742612  0.29826802  1
  O  O1412  1  0.94426754  0.89865136  0.38208464  1
  C  C1413  1  0.93821452  0.94722530  0.49427381  1
  C  C1414  1  0.92071469  0.87521672  0.36321686  1
  O  O1415  1  0.93408820  0.90424927  0.46600602  1
  C  C1416  1  0.97392776  0.65587073  0.39635800  1
  C  C1417  1  0.89039537  0.86662380  0.25915641  1
  H  H1418  1  0.98409548  0.68953654  0.49842482  1
  H  H1419  1  0.87474177  0.82157126  0.31652296  1
  C  C1420  1  0.92192492  0.60405501  0.39465058  1
  C  C1421  1  0.89395000  0.85472613  0.29954351  1
  H  H1422  1  0.95778388  0.75037426  0.26304781  1
  C  C1423  1  0.93394243  0.54561360  0.41901002  1
  Cu  Cu1424  1  0.96463724  0.85608754  0.42881633  1
  H  H1425  1  0.93208338  0.70828069  0.36495626  1
  C  C1426  1  0.59959930  0.65933181  0.65440727  1
  C  C1427  1  0.54559173  0.61423563  0.65046787  1
  C  C1428  1  0.56825177  0.65855094  0.67018608  1
  C  C1429  1  0.61103053  0.62000579  0.62147931  1
  C  C1430  1  0.62643862  0.70483180  0.67206824  1
  O  O1431  1  0.61973336  0.73990823  0.70524061  1
  H  H1432  1  0.56125363  0.68426515  0.69854631  1
  O  O1433  1  0.64709514  0.92465697  0.71785650  1
  H  H1434  1  0.62148064  0.74152675  0.54523309  1
  C  C1435  1  0.55649983  0.57953027  0.61207708  1
  H  H1436  1  0.63768557  0.61724583  0.61396617  1
  Cu  Cu1437  1  0.63497624  0.82706103  0.71437093  1
  C  C1438  1  0.58941377  0.57680762  0.59932221  1
  C  C1439  1  0.58699701  0.92374327  0.69267230  1
  H  H1440  1  0.60635459  0.90408633  0.67353262  1
  H  H1441  1  0.57598849  0.84134690  0.60514749  1
  C  C1442  1  0.55130283  0.83490375  0.61710809  1
  C  C1443  1  0.55440021  0.91091702  0.68260123  1
  C  C1444  1  0.53926831  0.86921392  0.65019720  1
  O  O1445  1  0.56913582  0.75833912  0.54987336  1
  C  C1446  1  0.53989067  0.75562162  0.56087329  1
  O  O1447  1  0.62239569  0.92925319  0.59862035  1
  O  O1448  1  0.63489258  0.90811112  0.53678137  1
  C  C1449  1  0.64200726  0.92989777  0.57322064  1
  O  O1450  1  0.65176191  0.71592365  0.65537152  1
  C  C1451  1  0.52854561  0.79377889  0.59574386  1
  C  C1452  1  0.64634598  0.75389112  0.53345108  1
  H  H1453  1  0.56646569  0.57865181  0.53075219  1
  C  C1454  1  0.54874591  0.53757668  0.52542322  1
  H  H1455  1  0.59752095  0.54097553  0.57424927  1
  N  N1456  1  0.53180834  0.54350900  0.59413605  1
  C  C1457  1  0.52896556  0.94013208  0.70915787  1
  O  O1458  1  0.51956299  0.72347065  0.53823548  1
  C  C1459  1  0.59267657  0.96526843  0.72716223  1
  Cu  Cu1460  1  0.60087029  0.92939788  0.50605902  1
  C  C1461  1  0.51063375  0.59976584  0.65327489  1
  C  C1462  1  0.50485151  0.86613319  0.66021355  1
  C  C1463  1  0.62927788  0.97739884  0.73253746  1
  N  N1464  1  0.50072152  0.90706727  0.69501191  1
  C  C1465  1  0.50434248  0.55985947  0.61621783  1
  C  C1466  1  0.52866919  0.50986622  0.55653714  1
  C  C1467  1  0.64805698  0.50711498  0.66108981  1
  C  C1468  1  0.53591128  0.98235450  0.74241118  1
  H  H1469  1  0.66778638  0.77885060  0.59075114  1
  C  C1470  1  0.67199817  0.76731870  0.55879351  1
  H  H1471  1  0.68327047  0.54398450  0.70656365  1
  H  H1472  1  0.68127880  0.60882857  0.55699001  1
  C  C1473  1  0.72869387  0.98977836  0.55793928  1
  C  C1474  1  0.67479727  0.96310427  0.58006121  1
  C  C1475  1  0.69765628  0.96241477  0.54894628  1
  C  C1476  1  0.70358937  0.78141177  0.54185577  1
  C  C1477  1  0.73672897  0.80993563  0.60230018  1
  N  N1478  1  0.73205470  0.79554169  0.56141067  1
  C  C1479  1  0.71935912  0.77644296  0.63293498  1
  H  H1480  1  0.70539500  0.72600339  0.62659657  1
  C  C1481  1  0.72352790  0.80333281  0.67108034  1
  C  C1482  1  0.74687350  0.86088132  0.67678887  1
  C  C1483  1  0.75722823  0.87097644  0.60798662  1
  C  C1484  1  0.75604255  0.80432474  0.53229738  1
  C  C1485  1  0.76323729  0.89700475  0.64607306  1
  H  H1486  1  0.70969054  0.77548291  0.69434374  1
  H  H1487  1  0.76876526  0.89777153  0.58275643  1
  H  H1488  1  0.78054318  0.94290283  0.64838202  1
  C  C1489  1  0.79041003  0.81803965  0.53680764  1
  C  C1490  1  0.75001734  0.90107455  0.71584284  1
  H  H1491  1  0.80012240  0.82420880  0.56720883  1
  H  H1492  1  0.80112796  0.61160625  0.71798841  1
  H  H1493  1  0.78829396  0.67816663  0.60628782  1
  O  O1494  1  0.79969695  0.58587956  0.56135972  1
  H  H1495  1  0.80225184  0.87516006  0.71958174  1
  C  C1496  1  0.78218922  0.91078201  0.72866677  1
  C  C1497  1  0.80953744  0.71407114  0.60009652  1
  C  C1498  1  0.69809148  0.58839401  0.53279569  1
  C  C1499  1  0.82199273  0.64184214  0.72765333  1
  H  H1500  1  0.69195951  0.93306719  0.52113794  1
  C  C1501  1  0.82136781  0.62653500  0.54407030  1
  H  H1502  1  0.79963085  0.79404109  0.64744843  1
  H  H1503  1  0.69947897  0.93860234  0.72061017  1
  C  C1504  1  0.81456461  0.77713856  0.62218460  1
  C  C1505  1  0.82753872  0.69593019  0.56598129  1
  C  C1506  1  0.72048219  0.53396301  0.54235996  1
  C  C1507  1  0.72441853  0.94661268  0.73066043  1
  C  C1508  1  0.75899706  0.99953553  0.53541167  1
  C  C1509  1  0.82643360  0.99028808  0.51716792  1
  O  O1510  1  0.82198289  0.59176071  0.64968534  1
  Cu  Cu1511  1  0.82183401  0.53684041  0.59948441  1
  C  C1512  1  0.67953780  0.53044523  0.67456450  1
  C  C1513  1  0.70523486  0.52809905  0.64835270  1
  H  H1514  1  0.72821177  0.54959701  0.65786956  1
  C  C1515  1  0.69813165  0.50777689  0.60833832  1
  H  H1516  1  0.77783044  0.52136078  0.71845792  1
  C  C1517  1  0.80965969  0.81890808  0.50320461  1
  Cu  Cu1518  1  0.99900146  0.97634073  0.51992296  1
  C  C1519  1  0.87902848  0.86676900  0.56099825  1
  O  O1520  1  0.83517590  0.60610926  0.51521070  1
  C  C1521  1  0.92801776  0.68591710  0.56568107  1
  H  H1522  1  0.91435349  0.50600900  0.62953417  1
  H  H1523  1  0.93326242  0.56520001  0.71761330  1
  N  N1524  1  0.99711981  0.54870475  0.68653919  1
  C  C1525  1  0.85749319  0.80360581  0.56888739  1
  C  C1526  1  0.85661393  0.98369059  0.66756481  1
  C  C1527  1  0.84711563  0.62011308  0.66126261  1
  C  C1528  1  0.84183052  0.81805187  0.60724239  1
  C  C1529  1  0.91353234  0.99572751  0.55927526  1
  C  C1530  1  0.91588519  0.94449780  0.52755360  1
  H  H1531  1  0.93146035  0.54252036  0.58264337  1
  H  H1532  1  0.89882284  0.68260136  0.69364566  1
  C  C1533  1  0.85569814  0.87886239  0.72924189  1
  O  O1534  1  0.93193936  0.74440461  0.55133906  1
  C  C1535  1  0.89512913  0.97964963  0.59309888  1
  H  H1536  1  0.93001646  0.98456916  0.74447935  1
  C  C1537  1  0.91297092  0.54495297  0.73423733  1
  C  C1538  1  0.85260201  0.85156554  0.68989830  1
  C  C1539  1  0.85227004  0.90648821  0.65999041  1
  C  C1540  1  0.98800914  0.67094602  0.65113399  1
  H  H1541  1  0.85222765  0.97954118  0.51116370  1
  C  C1542  1  0.89756582  0.88130463  0.52725589  1
  C  C1543  1  0.97109560  0.70314096  0.61930818  1
  C  C1544  1  0.98365314  0.59597310  0.65886891  1
  Cu  Cu1545  1  0.87605066  0.60927226  0.58584295  1
  C  C1546  1  0.86749590  0.95026647  0.73323470  1
  H  H1547  1  0.97511093  0.76177434  0.60938701  1
  C  C1548  1  0.94555717  0.58194415  0.60122781  1
  C  C1549  1  0.99289790  0.52610627  0.53766914  1
  C  C1550  1  0.96363293  0.55110406  0.63270101  1
  C  C1551  1  0.84971329  0.64767009  0.70194038  1
  H  H1552  1  0.97643873  0.54110753  0.51452554  1
  O  O1553  1  0.87083397  0.63159794  0.63750555  1
  H  H1554  1  0.85122208  0.79452218  0.68190578  1
  C  C1555  1  0.95023997  0.65762231  0.59762009  1
  C  C1556  1  0.87608707  0.91501162  0.59524778  1
  H  H1557  1  0.86576785  0.71934320  0.52281604  1
  N  N1558  1  0.85365400  0.88440141  0.62031399  1
  C  C1559  1  0.87749738  0.68339135  0.71219111  1
  O  O1560  1  0.90610056  0.64173887  0.55135666  1
  C  C1561  1  0.85152720  0.73851297  0.54816422  1
  C  C1562  1  0.88702899  0.50664023  0.71609790  1
  C  C1563  1  0.87821966  0.71518371  0.74949263  1
  H  H1564  1  0.94611154  0.73119680  0.74461338  1
  H  H1565  1  0.83578467  0.82747612  0.50496251  1
  H  H1566  1  0.89875332  0.83898285  0.50474314  1
  C  C1567  1  0.56386595  0.90476170  0.84077596  1
  N  N1568  1  0.53160448  0.91244082  0.85132913  1
  C  C1569  1  0.53329705  0.81188210  0.81253945  1
  C  C1570  1  0.56644041  0.84070617  0.81506652  1
  C  C1571  1  0.59693153  0.59806793  0.81460824  1
  C  C1572  1  0.62040581  0.65264031  0.80710920  1
  C  C1573  1  0.63987999  0.62876545  0.87412955  1
  C  C1574  1  0.64350993  0.66510397  0.83736543  1
  C  C1575  1  0.62249412  0.86113490  0.81424058  1
  C  C1576  1  0.52336835  0.94536209  0.88768471  1
  C  C1577  1  0.61395769  0.57381869  0.87868147  1
  C  C1578  1  0.59095218  0.55802241  0.84924480  1
  C  C1579  1  0.59688292  0.82020336  0.80037193  1
  C  C1580  1  0.62172506  0.92006039  0.83992873  1
  C  C1581  1  0.52123505  0.74346624  0.80041798  1
  C  C1582  1  0.64382848  0.59556532  0.93938871  1
  C  C1583  1  0.57368017  0.58410279  0.78167997  1
  H  H1584  1  0.62458473  0.67543957  0.77811747  1
  H  H1585  1  0.59905072  0.77133011  0.78182312  1
  C  C1586  1  0.53472171  0.94920110  0.97064755  1
  C  C1587  1  0.61757057  0.55308243  0.92038989  1
  H  H1588  1  0.53556953  0.70492001  0.78526031  1
  C  C1589  1  0.59177123  0.94393027  0.85431212  1
  H  H1590  1  0.64407348  0.94865271  0.85068286  1
  H  H1591  1  0.66018606  0.78871032  0.88531110  1
  N  N1592  1  0.65445918  0.64466972  0.91013409  1
  C  C1593  1  0.63626357  0.92090088  0.97959436  1
  C  C1594  1  0.65446151  0.84159555  0.79486952  1
  C  C1595  1  0.51096328  0.86531236  0.83093775  1
  H  H1596  1  0.52275183  0.63139635  0.86627427  1
  H  H1597  1  0.54497941  0.81338890  0.97730516  1
  H  H1598  1  0.61259960  0.94797512  0.97916980  1
  O  O1599  1  0.65622324  0.79821081  0.76375099  1
  Cu  Cu1600  1  0.51016194  0.52737032  0.80750812  1
  O  O1601  1  0.55170076  0.53432530  0.79063136  1
  H  H1602  1  0.57208249  0.51577490  0.85411851  1
  C  C1603  1  0.50933938  0.90311516  0.95461403  1
  C  C1604  1  0.65179418  0.58599660  0.98029600  1
  H  H1605  1  0.66335790  0.70022211  0.82995840  1
  C  C1606  1  0.50692388  0.63055651  0.89316581  1
  C  C1607  1  0.50236765  0.69757849  0.91050094  1
  H  H1608  1  0.58833763  0.99693329  0.86983106  1
  O  O1609  1  0.57474784  0.61414409  0.75103786  1
  H  H1610  1  0.51602399  0.99793968  0.76265948  1
  C  C1611  1  0.60001704  0.50038729  0.94025197  1
  C  C1612  1  0.56906761  0.99404335  0.75178898  1
  C  C1613  1  0.50487634  0.89892692  0.91391409  1
  C  C1614  1  0.66308548  0.95110965  0.95847327  1
  H  H1615  1  0.51385614  0.74604059  0.89895832  1
  C  C1616  1  0.63357204  0.53098123  0.99934419  1
  C  C1617  1  0.72375148  0.50272549  0.96286848  1
  O  O1618  1  0.67378192  0.54089086  0.80436648  1
  O  O1619  1  0.67813723  0.86685330  0.80987133  1
  H  H1620  1  0.71505118  0.95024725  0.93785979  1
  C  C1621  1  0.67998026  0.69250222  0.91745176  1
  C  C1622  1  0.79084574  0.54186172  0.98786623  1
  C  C1623  1  0.78076188  0.54292232  0.94799553  1
  C  C1624  1  0.74553538  0.53269081  0.89180957  1
  C  C1625  1  0.68200823  0.76115285  0.89690021  1
  C  C1626  1  0.78603239  0.57330785  0.84008440  1
  H  H1627  1  0.71374782  0.83106217  0.86159565  1
  C  C1628  1  0.71163271  0.78814335  0.88410912  1
  C  C1629  1  0.70936680  0.66697663  0.93738898  1
  C  C1630  1  0.73831849  0.69776078  0.92907875  1
  C  C1631  1  0.73951535  0.75329376  0.89759375  1
  C  C1632  1  0.76746532  0.78981466  0.83263820  1
  H  H1633  1  0.74336789  0.79272582  0.81859691  1
  H  H1634  1  0.76163322  0.67288067  0.93764106  1
  C  C1635  1  0.76904929  0.77195918  0.87419645  1
  H  H1636  1  0.80114469  0.75020845  0.92255080  1
  C  C1637  1  0.80044734  0.76638897  0.89208052  1
  C  C1638  1  0.79535939  0.79810526  0.81094919  1
  H  H1639  1  0.79536199  0.80564977  0.77822343  1
  H  H1640  1  0.70705775  0.61857621  0.95525127  1
  N  N1641  1  0.79906215  0.55444551  0.91304721  1
  C  C1642  1  0.77855258  0.55854118  0.88082463  1
  C  C1643  1  0.69490576  0.92600562  0.95689293  1
  C  C1644  1  0.76086625  0.56697438  0.81279066  1
  C  C1645  1  0.79625849  0.95368963  0.84827522  1
  H  H1646  1  0.78683288  0.90608439  0.83175996  1
  C  C1647  1  0.82655709  0.78327166  0.82924963  1
  C  C1648  1  0.72909979  0.55110152  0.82501341  1
  C  C1649  1  0.76065890  0.81786518  0.97569245  1
  C  C1650  1  0.69811746  0.85681574  0.97458793  1
  H  H1651  1  0.77191944  0.85617395  0.95532246  1
  C  C1652  1  0.82870859  0.77853625  0.87207439  1
  H  H1653  1  0.81166842  0.58600546  0.83066790  1
  H  H1654  1  0.81430426  0.97828224  0.75833548  1
  H  H1655  1  0.79961839  0.66868685  0.78488631  1
  C  C1656  1  0.81622108  0.77379686  0.98516335  1
  C  C1657  1  0.72082707  0.53412747  0.86347264  1
  C  C1658  1  0.74718132  0.52295501  0.93485327  1
  C  C1659  1  0.81807658  0.94514954  0.87921210  1
  C  C1660  1  0.72760746  0.81376514  0.98455191  1
  H  H1661  1  0.81590306  0.55427780  0.99552668  1
  C  C1662  1  0.78959576  0.97076299  0.75265930  1
  H  H1663  1  0.69514243  0.52559760  0.87209123  1
  H  H1664  1  0.76668849  0.58174513  0.78132157  1
  C  C1665  1  0.70143935  0.54764273  0.79279650  1
  O  O1666  1  0.71012463  0.55839062  0.75793813  1
  C  C1667  1  0.82038183  0.67558564  0.76406862  1
  H  H1668  1  0.82411448  0.64547330  0.86496801  1
  C  C1669  1  0.83173187  0.57429353  0.91459336  1
  C  C1670  1  0.78099950  0.76669130  0.99274441  1
  H  H1671  1  0.82606124  0.89340004  0.88985045  1
  O  O1672  1  0.82656491  0.83001335  0.96483467  1
  H  H1673  1  0.66939607  0.61960411  0.99663252  1
  C  C1674  1  0.91641056  0.99811605  0.76928290  1
  H  H1675  1  0.99956563  0.87003311  0.98310393  1
  O  O1676  1  0.83439271  0.73134577  0.99930085  1
  C  C1677  1  0.85952905  0.50835651  0.78389762  1
  C  C1678  1  0.89312689  0.63007665  0.92151867  1
  N  N1679  1  0.85326024  0.76382868  0.80636791  1
  C  C1680  1  0.85906337  0.99133888  0.92229004  1
  C  C1681  1  0.93488331  0.75348826  0.77213524  1
  C  C1682  1  0.91191279  0.56035104  0.77461711  1
  C  C1683  1  0.94335723  0.64831804  0.96460257  1
  C  C1684  1  0.96604817  0.74562835  0.90367575  1
  H  H1685  1  0.98871900  0.67894565  0.99598854  1
  H  H1686  1  0.85796344  0.84148393  0.75248318  1
  C  C1687  1  0.90256176  0.75244327  0.77556954  1
  C  C1688  1  0.98753372  0.78427014  0.80305352  1
  H  H1689  1  0.95267142  0.85755322  0.85312138  1
  O  O1690  1  0.94051678  0.60876279  0.83045450  1
  H  H1691  1  0.89143411  0.85766652  0.86032799  1
  C  C1692  1  0.87439467  0.65384253  0.88832898  1
  H  H1693  1  0.92311314  0.72281662  0.87075098  1
  C  C1694  1  0.84315966  0.62584478  0.88554627  1
  H  H1695  1  0.84237097  0.50097818  0.96777775  1
  O  O1696  1  0.96367571  0.61242306  0.77285129  1
  C  C1697  1  0.88516588  0.78811372  0.80869562  1
  H  H1698  1  0.88270719  0.56073229  0.83153161  1
  H  H1699  1  0.98288515  0.89763815  0.90430627  1
  C  C1700  1  0.93687590  0.71087976  0.89808280  1
  O  O1701  1  0.99598130  0.52793563  0.82987923  1
  C  C1702  1  0.92531381  0.66266429  0.92958290  1
  C  C1703  1  0.88448100  0.54518457  0.80022276  1
  O  O1704  1  0.94376593  0.86326917  0.95426497  1
  Cu  Cu1705  1  0.96638210  0.56266187  0.87085713  1
  C  C1706  1  0.93368585  0.86029610  0.98700520  1
  C  C1707  1  0.93713759  0.82706609  0.83214747  1
  H  H1708  1  0.97582146  0.77769916  0.87940637  1
  H  H1709  1  0.84203999  0.96239162  0.81108224  1
  C  C1710  1  0.86526058  0.98956748  0.80765891  1
  C  C1711  1  0.98322891  0.73555250  0.94092845  1
  C  C1712  1  0.93935627  0.59487113  0.79340566  1
  H  H1713  1  0.85141778  0.77669551  0.89028655  1
  C  C1714  1  0.88026030  0.57459175  0.94889117  1
  H  H1715  1  0.89729128  0.55650530  0.97243202  1
  O  O1716  1  0.86828836  0.92047076  0.91873931  1
  Cu  Cu1717  1  0.86940035  0.86217650  0.96036887  1
  C  C1718  1  0.88250045  0.98097760  0.77024992  1
  C  C1719  1  0.85089564  0.54217015  0.94561339  1
  O  O1720  1  0.98373770  0.51405798  0.91407333  1
  C  C1721  1  0.97222008  0.68579558  0.97039488  1
  H  H1722  1  0.93513357  0.61170571  0.98769275  1
  H  H1723  1  0.88336766  0.69636601  0.86651395  1
  C  C1724  1  0.90355114  0.82833035  0.83570296  1
  C  C1725  1  0.95300272  0.78927198  0.80201030  1
  C  C1726  1  0.84893448  0.71607869  0.77403178  1
  O  O1727  1  0.90206399  0.85908907  0.99395281  1
