# generated using pymatgen
data_CuH10C20NO4
_symmetry_space_group_name_H-M   'P 1'
_cell_length_a   29.78732268
_cell_length_b   32.05054616
_cell_length_c   28.99579255
_cell_angle_alpha   90.00000000
_cell_angle_beta   90.00000000
_cell_angle_gamma   90.00000000
_symmetry_Int_Tables_number   1
_chemical_formula_structural   CuH10C20NO4
_chemical_formula_sum   'Cu48 H480 C960 N48 O192'
_cell_volume   27682.28200813
_cell_formula_units_Z   48
loop_
 _symmetry_equiv_pos_site_id
 _symmetry_equiv_pos_as_xyz
  1  'x, y, z'
loop_
 _atom_site_type_symbol
 _atom_site_label
 _atom_site_symmetry_multiplicity
 _atom_site_fract_x
 _atom_site_fract_y
 _atom_site_fract_z
 _atom_site_occupancy
  O  O0  1  0.23139564  0.01586961  0.02589943  1
  C  C1  1  0.22151390  0.01261045  0.06832502  1
  O  O2  1  0.24270512  0.03311647  0.09935133  1
  C  C3  1  0.45849858  0.21859920  0.20022374  1
  O  O4  1  0.32789768  0.04613174  0.18310299  1
  Cu  Cu5  1  0.27546064  0.07391326  0.07447845  1
  C  C6  1  0.44032473  0.12231049  0.08327377  1
  O  O7  1  0.32667662  0.07759508  0.11601163  1
  C  C8  1  0.32455653  0.07777335  0.16213621  1
  C  C9  1  0.31167308  0.15486763  0.15629043  1
  H  H10  1  0.31612102  0.15360553  0.11774136  1
  H  H11  1  0.44654235  0.03382448  0.08401187  1
  C  C12  1  0.44262150  0.10650500  0.18061562  1
  C  C13  1  0.40523123  0.12784046  0.16137746  1
  C  C14  1  0.40307404  0.13120313  0.11276713  1
  H  H15  1  0.37513584  0.13535394  0.18265068  1
  C  C16  1  0.31204411  0.11792643  0.18429812  1
  H  H17  1  0.37227045  0.14614271  0.10126271  1
  H  H18  1  0.40905970  0.20184711  0.04530460  1
  O  O19  1  0.30256515  0.11544447  0.04002768  1
  C  C20  1  0.42686984  0.18069761  0.02134892  1
  C  C21  1  0.31147516  0.19118487  0.18167233  1
  C  C22  1  0.44349686  0.14004888  0.03564908  1
  N  N23  1  0.44436347  0.09561393  0.22751992  1
  H  H24  1  0.33609919  0.17927439  0.02939155  1
  H  H25  1  0.39685827  0.01273291  0.21361252  1
  N  N26  1  0.46988212  0.23276848  0.11732687  1
  C  C27  1  0.47756129  0.09975564  0.10472036  1
  H  H28  1  0.47340057  0.18795671  0.19839379  1
  C  C29  1  0.47507439  0.01975148  0.22179168  1
  C  C30  1  0.47904139  0.09205476  0.15110195  1
  H  H31  1  0.39581600  0.17631356  0.23051370  1
  H  H32  1  0.47560946  0.01801563  0.18490423  1
  H  H33  1  0.47371674  0.08051343  0.01334164  1
  C  C34  1  0.30635450  0.18968249  0.23215509  1
  C  C35  1  0.30603483  0.11350562  0.23187578  1
  H  H36  1  0.39272039  0.01122933  0.14696256  1
  C  C37  1  0.31120650  0.23393592  0.16479395  1
  N  N38  1  0.30299762  0.23101296  0.24570390  1
  C  C39  1  0.45253600  0.24415854  0.15970784  1
  C  C40  1  0.49310229  0.24576849  0.04447073  1
  C  C41  1  0.45930271  0.05693115  0.24417127  1
  H  H42  1  0.31391645  0.23970465  0.08846343  1
  C  C43  1  0.44793938  0.23581536  0.24225920  1
  Cu  Cu44  1  0.28807246  0.02771158  0.00013196  1
  C  C45  1  0.45150655  0.00337268  0.10099563  1
  H  H46  1  0.30365992  0.08245109  0.24812584  1
  C  C47  1  0.46530631  0.11318820  0.00253923  1
  H  H48  1  0.23985981  0.46494247  0.06756206  1
  C  C49  1  0.00700563  0.49877552  0.05571673  1
  Cu  Cu50  1  0.46918654  0.41254913  0.01720792  1
  H  H51  1  0.47060847  0.48919990  0.03132892  1
  H  H52  1  0.30441358  0.35597497  0.16271335  1
  C  C53  1  0.29688169  0.49980997  0.03259545  1
  C  C54  1  0.45824486  0.25556589  0.07687142  1
  C  C55  1  0.39741493  0.48923642  0.14139024  1
  C  C56  1  0.41740236  0.46283815  0.10597883  1
  C  C57  1  0.42528076  0.28629600  0.06400668  1
  C  C58  1  0.30023173  0.30260506  0.20881664  1
  H  H59  1  0.25605073  0.40026290  0.02361280  1
  C  C60  1  0.31412775  0.32433893  0.07987376  1
  H  H61  1  0.33060841  0.48011933  0.10957857  1
  C  C62  1  0.30243191  0.32211232  0.16584350  1
  C  C63  1  0.30830564  0.29787861  0.12461275  1
  O  O64  1  0.45864944  0.45757219  0.10319309  1
  H  H65  1  0.39857996  0.32935116  0.20898891  1
  C  C66  1  0.27532120  0.42812468  0.01751644  1
  H  H67  1  0.40980788  0.33594619  0.01510403  1
  H  H68  1  0.41777211  0.30048392  0.13302817  1
  C  C69  1  0.31087585  0.25492014  0.12162561  1
  H  H70  1  0.49039281  0.40468155  0.19730761  1
  C  C71  1  0.26791877  0.46501272  0.04213072  1
  Cu  Cu72  1  0.49102475  0.40769770  0.10894297  1
  O  O73  1  0.45035112  0.37015230  0.13083042  1
  C  C74  1  0.42614402  0.28159710  0.16443022  1
  O  O75  1  0.37718062  0.37395721  0.13604248  1
  C  C76  1  0.41479591  0.38063477  0.15366352  1
  C  C77  1  0.47559294  0.30503845  0.00383485  1
  C  C78  1  0.43341275  0.31371601  0.02744485  1
  H  H79  1  0.29767109  0.31948741  0.24162989  1
  C  C80  1  0.37334154  0.41893667  0.21474254  1
  H  H81  1  0.34192339  0.41081995  0.19643507  1
  H  H82  1  0.39590963  0.28763480  0.08819813  1
  O  O83  1  0.32251115  0.30781182  0.04399270  1
  C  C84  1  0.41595789  0.40498420  0.19589410  1
  O  O85  1  0.39080892  0.44327784  0.07861603  1
  Cu  Cu86  1  0.34957542  0.40302113  0.08531228  1
  O  O87  1  0.30831447  0.36506810  0.08350541  1
  C  C88  1  0.45912164  0.41669563  0.21209934  1
  C  C89  1  0.30602800  0.25873682  0.20823678  1
  C  C90  1  0.41595608  0.29940691  0.20637119  1
  C  C91  1  0.34925862  0.49280932  0.13842992  1
  C  C92  1  0.42809841  0.27589491  0.24788311  1
  C  C93  1  0.19106193  0.18061394  0.40591239  1
  C  C94  1  0.14358441  0.18896250  0.41821916  1
  C  C95  1  0.12206411  0.16681683  0.34194346  1
  C  C96  1  0.10962007  0.18331071  0.38336816  1
  C  C97  1  0.16935254  0.15922931  0.32665650  1
  C  C98  1  0.20318528  0.16548040  0.36290373  1
  O  O99  1  0.17881862  0.14662351  0.28892725  1
  C  C100  1  0.21704159  0.19270282  0.44661430  1
  H  H101  1  0.09403172  0.16286166  0.31777682  1
  H  H102  1  0.07253346  0.18603428  0.39384043  1
  N  N103  1  0.14212711  0.20196876  0.46364557  1
  C  C104  1  0.18469137  0.20463954  0.48435849  1
  H  H105  1  0.23856251  0.16032548  0.35624133  1
  H  H106  1  0.23350497  0.20829972  0.28401870  1
  C  C107  1  0.10489155  0.21664145  0.48941408  1
  C  C108  1  0.24740039  0.23342687  0.30365030  1
  C  C109  1  0.07308661  0.24611792  0.47091377  1
  H  H110  1  0.19187471  0.24316707  0.35185097  1
  C  C111  1  0.26306297  0.19881499  0.45427996  1
  H  H112  1  0.28664583  0.19051821  0.42776493  1
  H  H113  1  0.36169807  0.03352506  0.28448779  1
  H  H114  1  0.29602568  0.15328196  0.29227224  1
  H  H115  1  0.40052896  0.08556185  0.37734770  1
  C  C116  1  0.39970555  0.10422995  0.34546111  1
  C  C117  1  0.42538074  0.09314778  0.30739239  1
  C  C118  1  0.37910150  0.14371172  0.34146133  1
  O  O119  1  0.34483045  0.14493989  0.41909659  1
  C  C120  1  0.35157639  0.16459996  0.37969974  1
  C  C121  1  0.38079864  0.17009881  0.30367072  1
  C  C122  1  0.45096083  0.05538553  0.29450597  1
  H  H123  1  0.36062111  0.19813939  0.30536878  1
  O  O124  1  0.33687658  0.19953613  0.37335677  1
  Cu  Cu125  1  0.36903506  0.15351582  0.47216619  1
  O  O126  1  0.35154462  0.20768562  0.47852411  1
  C  C127  1  0.31565145  0.04409182  0.40674988  1
  C  C128  1  0.31996113  0.03067335  0.36130792  1
  H  H129  1  0.32253737  0.07682047  0.41795780  1
  H  H130  1  0.32372488  0.05508491  0.33556225  1
  H  H131  1  0.45814611  0.21655871  0.27476311  1
  H  H132  1  0.27354873  0.09312138  0.47718647  1
  H  H133  1  0.45709685  0.02415846  0.35742559  1
  C  C134  1  0.46357975  0.02101611  0.32067312  1
  C  C135  1  0.31392667  0.01170385  0.44016136  1
  C  C136  1  0.35575574  0.00135538  0.27465564  1
  H  H137  1  0.40559963  0.24077744  0.33203577  1
  N  N138  1  0.32601617  0.01481913  0.48725846  1
  C  C139  1  0.27619613  0.21594525  0.49806761  1
  C  C140  1  0.42334532  0.11735931  0.26309474  1
  C  C141  1  0.40001633  0.15523861  0.26235981  1
  C  C142  1  0.29747328  0.15078172  0.25504131  1
  C  C143  1  0.29157407  0.24707332  0.29024819  1
  O  O144  1  0.46107346  0.14026202  0.49872552  1
  H  H145  1  0.07068655  0.25081537  0.43404185  1
  C  C146  1  0.22629737  0.25370587  0.33939921  1
  H  H147  1  0.18153528  0.25448603  0.41315493  1
  C  C148  1  0.18916447  0.28839021  0.42258170  1
  H  H149  1  0.07296075  0.34511913  0.40415882  1
  C  C150  1  0.05862924  0.35304863  0.43624549  1
  C  C151  1  0.15747720  0.30917192  0.44732843  1
  C  C152  1  0.20853686  0.37142560  0.44814158  1
  C  C153  1  0.01255563  0.34937542  0.44140681  1
  H  H154  1  0.21191297  0.40292817  0.46359237  1
  H  H155  1  0.12783399  0.29221130  0.46075024  1
  C  C156  1  0.16643033  0.35229817  0.45720736  1
  C  C157  1  0.08497366  0.36727349  0.47455490  1
  N  N158  1  0.13086255  0.36898297  0.48356423  1
  C  C159  1  0.22717118  0.31068464  0.39987001  1
  C  C160  1  0.23965002  0.35006598  0.42086398  1
  H  H161  1  0.03061803  0.29686618  0.48931054  1
  C  C162  1  0.24806403  0.28984562  0.36007897  1
  C  C163  1  0.49928942  0.35098531  0.48470822  1
  C  C164  1  0.37304673  0.44518032  0.25282322  1
  C  C165  1  0.40921546  0.27545153  0.33219993  1
  C  C166  1  0.49011949  0.45187483  0.43011454  1
  C  C167  1  0.40326011  0.29586923  0.37354848  1
  C  C168  1  0.42556210  0.36572302  0.33463561  1
  H  H169  1  0.39384830  0.27798491  0.40525293  1
  C  C170  1  0.31222909  0.28377167  0.31066414  1
  C  C171  1  0.30785403  0.32915131  0.48648448  1
  C  C172  1  0.46809138  0.48638491  0.31949190  1
  C  C173  1  0.42125136  0.29977492  0.29177800  1
  C  C174  1  0.41008283  0.41865636  0.46380665  1
  H  H175  1  0.48353582  0.29679776  0.36597245  1
  C  C176  1  0.49679573  0.27656024  0.46415757  1
  H  H177  1  0.34451229  0.29605477  0.29589672  1
  H  H178  1  0.42578717  0.47967535  0.39773747  1
  C  C179  1  0.29012344  0.30578143  0.34433764  1
  C  C180  1  0.41302288  0.34026689  0.37357822  1
  C  C181  1  0.42956034  0.45166816  0.48799765  1
  C  C182  1  0.42484802  0.34446515  0.29282095  1
  C  C183  1  0.47000978  0.46875000  0.47073976  1
  H  H184  1  0.43319874  0.36237744  0.26168891  1
  C  C185  1  0.37076253  0.39323341  0.47610818  1
  H  H186  1  0.33404743  0.30016362  0.42230777  1
  H  H187  1  0.34068881  0.45890365  0.26460495  1
  H  H188  1  0.42728746  0.40003371  0.33634472  1
  H  H189  1  0.27353298  0.36375612  0.40956327  1
  N  N190  1  0.42301175  0.48317286  0.30883711  1
  C  C191  1  0.33466798  0.32744132  0.44558618  1
  H  H192  1  0.48482996  0.40379034  0.37677278  1
  H  H193  1  0.27780325  0.30987889  0.48866569  1
  H  H194  1  0.30243788  0.33601210  0.35939880  1
  C  C195  1  0.49128366  0.46042529  0.28356936  1
  C  C196  1  0.47095816  0.41802702  0.40741634  1
  C  C197  1  0.36559596  0.36027044  0.44167689  1
  C  C198  1  0.43122899  0.39779224  0.42450886  1
  N  N199  1  0.40464401  0.36350888  0.41292164  1
  C  C200  1  0.45833591  0.44250987  0.25014193  1
  C  C201  1  0.41565125  0.45740725  0.27098486  1
  C  C202  1  0.13429532  0.18644395  0.65990625  1
  C  C203  1  0.17985658  0.17415421  0.64450060  1
  O  O204  1  0.19250122  0.13826887  0.65412393  1
  C  C205  1  0.10388895  0.20721663  0.53813504  1
  H  H206  1  0.11984725  0.17935633  0.55270582  1
  O  O207  1  0.20644234  0.19969442  0.62537591  1
  C  C208  1  0.12083954  0.22927761  0.66387254  1
  C  C209  1  0.10931224  0.15196498  0.67188048  1
  H  H210  1  0.11832867  0.11802251  0.66721606  1
  C  C211  1  0.05309401  0.20603322  0.69862958  1
  C  C212  1  0.06745663  0.16231399  0.69427374  1
  C  C213  1  0.19871269  0.22182079  0.52710933  1
  Cu  Cu214  1  0.21252561  0.12779026  0.71381638  1
  C  C215  1  0.08032847  0.23283152  0.56806326  1
  H  H216  1  0.07739956  0.22279557  0.60432429  1
  H  H217  1  0.17368633  0.23320609  0.55178535  1
  H  H218  1  0.05356541  0.07013218  0.70616818  1
  C  C219  1  0.03265006  0.13531047  0.71330684  1
  C  C220  1  0.07927063  0.23949097  0.68055519  1
  C  C221  1  0.02878440  0.09217847  0.71821811  1
  O  O222  1  0.23311709  0.23457101  0.70595137  1
  C  C223  1  0.24478505  0.22430606  0.53316045  1
  O  O224  1  0.02399175  0.00857309  0.72651253  1
  N  N225  1  0.01159016  0.20435335  0.72022035  1
  O  O226  1  0.19606998  0.18490071  0.74234829  1
  C  C227  1  0.22506902  0.21444991  0.74138243  1
  H  H228  1  0.25690747  0.23631807  0.56673804  1
  Cu  Cu229  1  0.26123478  0.20832703  0.65634411  1
  H  H230  1  0.26771143  0.14418241  0.53999220  1
  O  O231  1  0.28846014  0.17231924  0.61648342  1
  C  C232  1  0.28754750  0.11555144  0.54614544  1
  C  C233  1  0.30812260  0.13767461  0.62407620  1
  O  O234  1  0.32724730  0.13284975  0.66256070  1
  C  C235  1  0.31037782  0.10610972  0.58764338  1
  H  H236  1  0.34574896  0.06540532  0.63031369  1
  C  C237  1  0.44432984  0.14020588  0.66241680  1
  C  C238  1  0.33477422  0.06903457  0.59674279  1
  C  C239  1  0.33795264  0.04001818  0.56088252  1
  C  C240  1  0.42688681  0.13996053  0.61739924  1
  H  H241  1  0.39171066  0.14256035  0.60877102  1
  H  H242  1  0.42185938  0.14111212  0.69259086  1
  C  C243  1  0.43952955  0.14620106  0.53280576  1
  C  C244  1  0.31685131  0.04840135  0.51507242  1
  C  C245  1  0.45898317  0.14443400  0.58170619  1
  Cu  Cu246  1  0.32011533  0.16797707  0.71268052  1
  O  O247  1  0.39576238  0.15074401  0.52933561  1
  O  O248  1  0.42024723  0.21506937  0.71258414  1
  C  C249  1  0.29172366  0.08664505  0.51018806  1
  O  O250  1  0.33547470  0.23966898  0.54467677  1
  C  C251  1  0.49245264  0.14071855  0.66949877  1
  C  C252  1  0.39441721  0.21675451  0.74491601  1
  O  O253  1  0.35101500  0.21138795  0.73993295  1
  H  H254  1  0.47918262  0.21589954  0.59391953  1
  C  C255  1  0.32417185  0.22178307  0.50754088  1
  C  C256  1  0.41338827  0.24504318  0.61821332  1
  H  H257  1  0.39370135  0.22309635  0.59755274  1
  C  C258  1  0.46073875  0.24019704  0.61695777  1
  H  H259  1  0.43862840  0.15029945  0.74294261  1
  H  H260  1  0.45684441  0.23612320  0.51170190  1
  C  C261  1  0.00876227  0.35514312  0.65102829  1
  C  C262  1  0.00150390  0.44813550  0.72010428  1
  H  H263  1  0.00316314  0.30659293  0.73945546  1
  C  C264  1  0.00564927  0.37533507  0.73061018  1
  H  H265  1  0.14302823  0.25420528  0.65453777  1
  C  C266  1  0.05281361  0.26651806  0.55155888  1
  H  H267  1  0.06601581  0.27201975  0.67733712  1
  C  C268  1  0.03363579  0.30081594  0.58199016  1
  C  C269  1  0.05471811  0.34217869  0.64841230  1
  C  C270  1  0.06599616  0.31385332  0.61348943  1
  H  H271  1  0.09924766  0.30126842  0.60895065  1
  C  C272  1  0.13695799  0.41365948  0.66967054  1
  O  O273  1  0.10178439  0.43271290  0.68563029  1
  H  H274  1  0.07853236  0.35540312  0.67463231  1
  H  H275  1  0.06744736  0.41472706  0.61775098  1
  C  C276  1  0.13744454  0.39974043  0.62009851  1
  C  C277  1  0.09620948  0.40485596  0.59753581  1
  C  C278  1  0.17679828  0.38623859  0.59735059  1
  C  C279  1  0.09652703  0.39172199  0.55072680  1
  C  C280  1  0.18219895  0.37767540  0.55108802  1
  C  C281  1  0.14046547  0.38398280  0.52786044  1
  H  H282  1  0.20605197  0.38349580  0.62058675  1
  O  O283  1  0.16878178  0.40585498  0.69287576  1
  H  H284  1  0.21258275  0.36349982  0.53532717  1
  Cu  Cu285  1  0.11101024  0.47605935  0.72192930  1
  C  C286  1  0.01615256  0.37925638  0.52162788  1
  C  C287  1  0.06226319  0.38191246  0.51628458  1
  C  C288  1  0.04922249  0.27088134  0.50295757  1
  C  C289  1  0.45165896  0.48323286  0.64989207  1
  C  C290  1  0.41475889  0.30084249  0.67663448  1
  H  H291  1  0.38599477  0.42323071  0.63419007  1
  C  C292  1  0.49114542  0.44237942  0.58698921  1
  Cu  Cu293  1  0.30253648  0.28074215  0.56623797  1
  C  C294  1  0.49251658  0.47478738  0.68095839  1
  C  C295  1  0.42489451  0.38007049  0.58694767  1
  C  C296  1  0.46453280  0.37581974  0.55934719  1
  H  H297  1  0.35039307  0.41899894  0.54228132  1
  C  C298  1  0.46094720  0.29223166  0.68316555  1
  C  C299  1  0.49927274  0.40782610  0.55946426  1
  H  H300  1  0.36587743  0.46697183  0.73876063  1
  C  C301  1  0.28763939  0.36268092  0.56286646  1
  O  O302  1  0.28509246  0.39035130  0.58958413  1
  C  C303  1  0.40871435  0.49001949  0.68044849  1
  O  O304  1  0.32828299  0.31687926  0.67305491  1
  C  C305  1  0.43722923  0.45072629  0.74129585  1
  O  O306  1  0.31422806  0.26477794  0.62636553  1
  C  C307  1  0.45084507  0.44670322  0.61464313  1
  C  C308  1  0.48320314  0.45587932  0.72315213  1
  C  C309  1  0.39958126  0.46930213  0.72278142  1
  H  H310  1  0.39622859  0.32221028  0.69736332  1
  H  H311  1  0.43403198  0.29212577  0.56121578  1
  C  C312  1  0.31386407  0.36137483  0.51892439  1
  C  C313  1  0.41593496  0.41692907  0.61252937  1
  C  C314  1  0.34474445  0.39437627  0.51565463  1
  C  C315  1  0.47314364  0.34006118  0.52633162  1
  C  C316  1  0.39129482  0.27613820  0.64491001  1
  C  C317  1  0.34090496  0.28714371  0.65072178  1
  C  C318  1  0.45897021  0.29883333  0.53458264  1
  H  H319  1  0.39822093  0.35511977  0.58357099  1
  O  O320  1  0.26624634  0.32406408  0.57213105  1
  H  H321  1  0.41737634  0.46320372  0.52028825  1
  C  C322  1  0.49490823  0.30288607  0.71901564  1
  C  C323  1  0.48401410  0.26552939  0.64980897  1
  C  C324  1  0.47086363  0.26714652  0.50428006  1
  H  H325  1  0.23398780  0.02678834  0.86231523  1
  O  O326  1  0.16297699  0.00558013  0.88258020  1
  H  H327  1  0.23024610  0.04251723  0.78551053  1
  H  H328  1  0.23812043  0.16771936  0.82051024  1
  O  O329  1  0.24245150  0.11497645  0.77166871  1
  C  C330  1  0.25359402  0.00445070  0.88381323  1
  C  C331  1  0.25108137  0.22384520  0.78325348  1
  C  C332  1  0.25158707  0.19937584  0.82175055  1
  N  N333  1  0.48189061  0.18900537  0.90593861  1
  C  C334  1  0.46171067  0.01657887  0.84329025  1
  H  H335  1  0.27000237  0.12930597  0.90620554  1
  C  C336  1  0.26615027  0.03426515  0.77931922  1
  C  C337  1  0.46495999  0.17158607  0.94698528  1
  C  C338  1  0.44107255  0.11687542  0.80594818  1
  C  C339  1  0.27955613  0.21337044  0.85820379  1
  H  H340  1  0.32034469  0.03089833  0.86551420  1
  C  C341  1  0.29089737  0.19540560  0.90295655  1
  C  C342  1  0.28416882  0.15681861  0.92422549  1
  C  C343  1  0.44982074  0.05682056  0.86102325  1
  C  C344  1  0.41346097  0.06530615  0.89196473  1
  C  C345  1  0.38503748  0.21595407  0.83168616  1
  H  H346  1  0.40253127  0.09712037  0.90002714  1
  C  C347  1  0.38879432  0.03083307  0.90752169  1
  H  H348  1  0.36191377  0.03205064  0.93370420  1
  H  H349  1  0.34836013  0.21378108  0.82896806  1
  C  C350  1  0.40373465  0.20856656  0.87528792  1
  H  H351  1  0.38381857  0.20004528  0.90603842  1
  C  C352  1  0.41365030  0.22060119  0.79259725  1
  C  C353  1  0.45237894  0.20602615  0.87426644  1
  H  H354  1  0.40375315  0.12207581  0.81328399  1
  C  C355  1  0.47155304  0.09168743  0.83227067  1
  C  C356  1  0.29995984  0.06481138  0.77351698  1
  O  O357  1  0.27813489  0.08312585  0.98017138  1
  C  C358  1  0.30040906  0.15427901  0.97058044  1
  C  C359  1  0.43877350  0.19678592  0.97784304  1
  C  C360  1  0.30014002  0.00660895  0.88271911  1
  C  C361  1  0.34694348  0.05915121  0.76677385  1
  C  C362  1  0.28393123  0.10772417  0.77138694  1
  C  C363  1  0.46049586  0.13265341  0.76578668  1
  C  C364  1  0.46075037  0.22221075  0.79273711  1
  C  C365  1  0.48097903  0.21451064  0.83457190  1
  C  C366  1  0.36037248  0.01744350  0.77038369  1
  C  C367  1  0.31495128  0.23052378  0.92878534  1
  H  H368  1  0.42779950  0.22799622  0.96915548  1
  C  C369  1  0.33049539  0.22547160  0.97430858  1
  C  C370  1  0.47278670  0.12757995  0.95766132  1
  H  H371  1  0.48505503  0.00322408  0.93088020  1
  H  H372  1  0.49005056  0.01324385  0.81974242  1
  H  H373  1  0.49206142  0.10992706  0.93234091  1
  H  H374  1  0.36948278  0.08646144  0.76217610  1
  O  O375  1  0.31260371  0.13765012  0.76846903  1
  C  C376  1  0.44976125  0.00375902  0.75691947  1
  C  C377  1  0.32310278  0.18657499  0.99407728  1
  C  C378  1  0.29371440  0.11636550  0.99843308  1
  H  H379  1  0.46314259  0.03569800  0.75103256  1
  H  H380  1  0.47886981  0.22882286  0.76170937  1
  C  C381  1  0.00978064  0.49799191  0.89721681  1
  C  C382  1  0.01121512  0.41491342  0.75414615  1
  C  C383  1  0.03080419  0.33786321  0.79730676  1
  C  C384  1  0.05355086  0.37800341  0.86982286  1
  O  O385  1  0.06862735  0.40977939  0.88610477  1
  O  O386  1  0.05284145  0.34460409  0.88941752  1
  H  H387  1  0.02634934  0.44671037  0.82018509  1
  C  C388  1  0.02548783  0.41715214  0.80094699  1
  C  C389  1  0.03400478  0.37795770  0.81875608  1
  H  H390  1  0.04058425  0.31154309  0.81919657  1
  H  H391  1  0.24143932  0.38238185  0.95788324  1
  H  H392  1  0.24873200  0.30474136  0.92165313  1
  C  C393  1  0.01432534  0.33513820  0.75224900  1
  H  H394  1  0.45249230  0.32534914  0.77595364  1
  C  C395  1  0.35715798  0.36980665  0.94366474  1
  C  C396  1  0.33249677  0.46638379  0.96646493  1
  C  C397  1  0.29336098  0.28129336  0.81842049  1
  O  O398  1  0.39368012  0.41826412  0.79960051  1
  C  C399  1  0.48565133  0.31586431  0.76297648  1
  C  C400  1  0.27135180  0.26447794  0.78051293  1
  H  H401  1  0.26749996  0.28505161  0.75026066  1
  C  C402  1  0.27718416  0.32484950  0.93221600  1
  O  O403  1  0.45447721  0.45348926  0.90255117  1
  H  H404  1  0.39129656  0.38428115  0.95347226  1
  C  C405  1  0.27473950  0.36473894  0.94951784  1
  C  C406  1  0.42999236  0.42838126  0.78588261  1
  C  C407  1  0.31516565  0.38766184  0.95613280  1
  C  C408  1  0.29926033  0.25641261  0.85824725  1
  N  N409  1  0.31866443  0.26530445  0.90057678  1
  H  H410  1  0.39356166  0.31315562  0.92121595  1
  O  O411  1  0.48326805  0.35139335  0.84650525  1
  C  C412  1  0.48716609  0.33684794  0.96877093  1
  O  O413  1  0.43798771  0.44467467  0.97615349  1
  C  C414  1  0.36015343  0.32895499  0.92661898  1
  O  O415  1  0.46657571  0.37115425  0.96784630  1
  O  O416  1  0.46586903  0.42158696  0.81217616  1
  C  C417  1  0.31935311  0.30669849  0.91955503  1
  Cu  Cu418  1  0.46794775  0.40174357  0.87348964  1
  C  C419  1  0.30854399  0.42961707  0.98057858  1
  H  H420  1  0.30480399  0.31415363  0.81496387  1
  C  C421  1  0.45645237  0.46551063  0.94412904  1
  H  H422  1  0.35538522  0.46589786  0.93819923  1
  H  H423  1  0.34912189  0.25117286  0.99271713  1
  C  C424  1  0.20562864  0.58199076  0.15662639  1
  Cu  Cu425  1  0.08038138  0.58048547  0.19302163  1
  C  C426  1  0.17149092  0.59516851  0.19196615  1
  O  O427  1  0.17015872  0.62838001  0.21129086  1
  C  C428  1  0.09225667  0.69732823  0.20869513  1
  H  H429  1  0.10873425  0.66326180  0.06416435  1
  C  C430  1  0.09148222  0.65807096  0.03063073  1
  H  H431  1  0.09708950  0.56777773  0.06365196  1
  O  O432  1  0.13964010  0.56764555  0.20225366  1
  C  C433  1  0.19154003  0.54921719  0.12831233  1
  C  C434  1  0.21831318  0.53099647  0.09408418  1
  H  H435  1  0.15639920  0.53885854  0.13164953  1
  O  O436  1  0.07954292  0.54805523  0.13979936  1
  H  H437  1  0.05794944  0.63569817  0.12353930  1
  C  C438  1  0.07176514  0.54918303  0.04612533  1
  C  C439  1  0.04747137  0.69812572  0.22751866  1
  C  C440  1  0.09905467  0.71463408  0.16463263  1
  O  O441  1  0.02918045  0.61090592  0.20521410  1
  C  C442  1  0.02461524  0.63296052  0.11006208  1
  C  C443  1  0.01739826  0.63621646  0.06168414  1
  C  C444  1  0.04751279  0.64422710  0.02293666  1
  O  O445  1  0.17461422  0.68608899  0.03132463  1
  H  H446  1  0.12058287  0.68239952  0.22685030  1
  C  C447  1  0.04305897  0.52384518  0.07160464  1
  H  H448  1  0.13441957  0.71606437  0.15238395  1
  C  C449  1  0.06339497  0.73125153  0.13709756  1
  H  H450  1  0.20729440  0.50463729  0.06894016  1
  C  C451  1  0.01447404  0.72087151  0.20277572  1
  C  C452  1  0.01912876  0.73278090  0.15655616  1
  C  C453  1  0.04607665  0.52406617  0.12396340  1
  C  C454  1  0.00499471  0.73366686  0.04245825  1
  C  C455  1  0.04982243  0.74588343  0.05202751  1
  N  N456  1  0.07296576  0.74807698  0.09298437  1
  O  O457  1  0.02536230  0.50420945  0.15254730  1
  C  C458  1  0.25003201  0.59756849  0.15701569  1
  C  C459  1  0.26250855  0.54776822  0.09262951  1
  H  H460  1  0.26486638  0.61737332  0.18449627  1
  C  C461  1  0.27856315  0.58273414  0.12212779  1
  H  H462  1  0.28908181  0.51753001  0.16705977  1
  C  C463  1  0.32545255  0.51765106  0.16870057  1
  N  N464  1  0.29574717  0.53497621  0.06041857  1
  C  C465  1  0.32555201  0.58819828  0.10577452  1
  C  C466  1  0.34979333  0.54485136  0.20084002  1
  C  C467  1  0.39783855  0.54013666  0.20388778  1
  H  H468  1  0.35002688  0.64428481  0.14069545  1
  C  C469  1  0.35825642  0.61736523  0.11826111  1
  C  C470  1  0.43811721  0.64543391  0.11331966  1
  O  O471  1  0.47463492  0.63904829  0.09748433  1
  C  C472  1  0.40174254  0.61453038  0.09997030  1
  O  O473  1  0.43166669  0.67223842  0.14597022  1
  Cu  Cu474  1  0.47970068  0.68233419  0.18460074  1
  C  C475  1  0.33428507  0.55846420  0.06828127  1
  C  C476  1  0.41355130  0.58308842  0.06817814  1
  C  C477  1  0.38070595  0.55382095  0.05481857  1
  H  H478  1  0.44892289  0.58524101  0.05411391  1
  H  H479  1  0.39162092  0.52395225  0.03597125  1
  C  C480  1  0.42222615  0.51278587  0.17308179  1
  O  O481  1  0.46491696  0.73743048  0.19909483  1
  H  H482  1  0.45647205  0.51143552  0.17903913  1
  H  H483  1  0.26657395  0.51679021  0.23063173  1
  N  N484  1  0.33553771  0.57387415  0.23322877  1
  C  C485  1  0.41268187  0.56629236  0.24421239  1
  C  C486  1  0.29145406  0.57935784  0.24782764  1
  C  C487  1  0.48525094  0.51088926  0.00493780  1
  H  H488  1  0.20237933  0.99553806  0.15072688  1
  H  H489  1  0.13535479  0.78402199  0.15457833  1
  C  C490  1  0.07756208  0.76493333  0.01374135  1
  H  H491  1  0.02404046  0.79226082  0.18746409  1
  C  C492  1  0.11381733  0.76821909  0.08336813  1
  C  C493  1  0.12121831  0.77578274  0.03305174  1
  H  H494  1  0.01501746  0.84989610  0.07405853  1
  C  C495  1  0.02952296  0.89627758  0.22083206  1
  C  C496  1  0.14434725  0.78400014  0.11729235  1
  H  H497  1  0.20609521  0.81186767  0.12701908  1
  C  C498  1  0.18404189  0.79978185  0.10023542  1
  H  H499  1  0.14520242  0.94251386  0.18137511  1
  C  C500  1  0.19194130  0.80281308  0.05222615  1
  C  C501  1  0.03762793  0.86325607  0.04830490  1
  H  H502  1  0.07355031  0.81645382  0.12306668  1
  C  C503  1  0.07377752  0.88032558  0.15098372  1
  C  C504  1  0.07736214  0.88149106  0.06580789  1
  C  C505  1  0.10706790  0.90203821  0.03291164  1
  C  C506  1  0.13993689  0.92713679  0.05933075  1
  C  C507  1  0.12824275  0.92361463  0.10813340  1
  N  N508  1  0.09222008  0.89542097  0.10957423  1
  C  C509  1  0.06282173  0.83724895  0.15218176  1
  H  H510  1  0.06754150  0.94273964  0.18624752  1
  C  C511  1  0.15016631  0.94554459  0.14482794  1
  C  C512  1  0.05842489  0.90919899  0.18610898  1
  C  C513  1  0.17213841  0.95700111  0.04452824  1
  C  C514  1  0.18128114  0.97527790  0.12923841  1
  C  C515  1  0.19163707  0.97869172  0.08100591  1
  C  C516  1  0.03625064  0.82373492  0.18825976  1
  C  C517  1  0.16172409  0.79182609  0.01747197  1
  C  C518  1  0.01754619  0.85251946  0.22041669  1
  C  C519  1  0.23453967  0.82128556  0.03932314  1
  C  C520  1  0.03026756  0.85938093  0.00095624  1
  H  H521  1  0.17810851  0.96513954  0.00953554  1
  H  H522  1  0.01691956  0.92062374  0.24610078  1
  C  C523  1  0.34197396  0.95648970  0.02752312  1
  C  C524  1  0.48532941  0.97766596  0.08516654  1
  C  C525  1  0.43731295  0.87831606  0.04519874  1
  C  C526  1  0.42292279  0.88865835  0.19395869  1
  C  C527  1  0.42717578  0.95093598  0.15446663  1
  H  H528  1  0.44359866  0.85126442  0.06659660  1
  O  O529  1  0.26092349  0.83976710  0.06650809  1
  C  C530  1  0.42313871  0.99221142  0.13698563  1
  C  C531  1  0.39855793  0.90122711  0.05069413  1
  H  H532  1  0.37018907  0.89062056  0.06955184  1
  O  O533  1  0.33489789  0.79193550  0.00294040  1
  N  N534  1  0.40380126  0.92819634  0.18760457  1
  C  C535  1  0.34488896  0.91808393  0.24405739  1
  C  C536  1  0.48515196  0.98494898  0.24751081  1
  C  C537  1  0.49393224  0.93826703  0.10268034  1
  C  C538  1  0.37800015  0.98856953  0.23457074  1
  C  C539  1  0.38549269  0.93545831  0.02309638  1
  C  C540  1  0.45867500  0.88312829  0.15981823  1
  C  C541  1  0.46323874  0.92436597  0.13666742  1
  C  C542  1  0.41001349  0.85641785  0.22556151  1
  C  C543  1  0.46854739  0.89368856  0.01176268  1
  C  C544  1  0.37457523  0.94604093  0.22020658  1
  C  C545  1  0.47904882  0.76873942  0.17645363  1
  H  H546  1  0.42054316  0.78976573  0.23916387  1
  O  O547  1  0.31218086  0.94206993  0.05425760  1
  C  C548  1  0.46006748  0.81121540  0.18283503  1
  Cu  Cu549  1  0.28468257  0.88975973  0.05631251  1
  H  H550  1  0.33855867  0.88721839  0.22914261  1
  C  C551  1  0.47707630  0.84274910  0.15437604  1
  H  H552  1  0.49563992  0.95348878  0.23404045  1
  C  C553  1  0.42844175  0.81687161  0.21797627  1
  C  C554  1  0.10062083  0.68498921  0.43351758  1
  C  C555  1  0.06084066  0.66238940  0.44316325  1
  H  H556  1  0.09246770  0.63947184  0.37173243  1
  C  C557  1  0.07269322  0.66492029  0.30382217  1
  C  C558  1  0.06564101  0.65108043  0.34881410  1
  C  C559  1  0.21904740  0.57997447  0.30856792  1
  C  C560  1  0.18455966  0.57770319  0.34604870  1
  C  C561  1  0.12565813  0.56867810  0.42201615  1
  N  N562  1  0.10072840  0.55632915  0.45999583  1
  C  C563  1  0.16700995  0.59356329  0.42661916  1
  C  C564  1  0.19746816  0.59343176  0.39148585  1
  C  C565  1  0.13333112  0.68781269  0.46884851  1
  H  H566  1  0.16503025  0.70462253  0.46287993  1
  N  N567  1  0.02457798  0.65368524  0.41597168  1
  H  H568  1  0.22874443  0.61105580  0.39284844  1
  H  H569  1  0.16892905  0.61051626  0.45929742  1
  C  C570  1  0.02245479  0.65844401  0.36801624  1
  C  C571  1  0.14403226  0.55593173  0.33957412  1
  C  C572  1  0.11642831  0.55050769  0.37898325  1
  C  C573  1  0.05517165  0.54287820  0.45326034  1
  H  H574  1  0.10545184  0.69922330  0.39887030  1
  C  C575  1  0.03888278  0.68465215  0.27749937  1
  C  C576  1  0.22564635  0.54305381  0.28183461  1
  H  H577  1  0.03135564  0.57363206  0.39164189  1
  C  C578  1  0.02429603  0.55052037  0.41812318  1
  H  H579  1  0.10647157  0.66237146  0.28775232  1
  C  C580  1  0.00700280  0.63150958  0.49184591  1
  H  H581  1  0.24056510  0.64895415  0.32163780  1
  C  C582  1  0.05237140  0.64743932  0.49243922  1
  H  H583  1  0.13921243  0.53932791  0.30799663  1
  C  C584  1  0.24573726  0.61778421  0.30231951  1
  H  H585  1  0.20357813  0.51713068  0.28518867  1
  H  H586  1  0.08842464  0.52897521  0.37727624  1
  C  C587  1  0.04001678  0.52493342  0.49789987  1
  C  C588  1  0.49240921  0.51114397  0.35134415  1
  C  C589  1  0.31789949  0.72437461  0.25972226  1
  O  O590  1  0.31111025  0.71680948  0.29489559  1
  C  C591  1  0.33929222  0.59186376  0.47723597  1
  C  C592  1  0.32685933  0.58713226  0.43033425  1
  C  C593  1  0.34304232  0.55123008  0.40056948  1
  C  C594  1  0.30748152  0.62342876  0.40770175  1
  C  C595  1  0.32932541  0.66674037  0.47238056  1
  H  H596  1  0.29397920  0.62083752  0.37295678  1
  H  H597  1  0.41262665  0.65131910  0.34229488  1
  C  C598  1  0.41306367  0.62597294  0.31675431  1
  H  H599  1  0.37029473  0.70328804  0.39061748  1
  C  C600  1  0.30516631  0.66169270  0.42942518  1
  C  C601  1  0.45276591  0.60381457  0.30602442  1
  H  H602  1  0.34073734  0.63393040  0.30798900  1
  C  C603  1  0.37024098  0.61779088  0.29664102  1
  C  C604  1  0.32837554  0.54866553  0.35322617  1
  H  H605  1  0.29883650  0.56648246  0.34116719  1
  N  N606  1  0.34581078  0.70728850  0.48552311  1
  H  H607  1  0.28958744  0.68767030  0.41282554  1
  C  C608  1  0.45106345  0.57324274  0.27062703  1
  C  C609  1  0.27946532  0.61764163  0.26993729  1
  C  C610  1  0.38171867  0.73096693  0.41129114  1
  H  H611  1  0.47414528  0.53241996  0.37272894  1
  C  C612  1  0.37885970  0.52581932  0.41877525  1
  H  H613  1  0.38700859  0.52557866  0.45532092  1
  H  H614  1  0.34722161  0.56544793  0.49979520  1
  C  C615  1  0.34334709  0.63118820  0.49788237  1
  C  C616  1  0.37244836  0.59012599  0.25804139  1
  C  C617  1  0.35332961  0.52501165  0.32148874  1
  H  H618  1  0.29679817  0.64655052  0.25987430  1
  H  H619  1  0.47915618  0.55122271  0.26467050  1
  H  H620  1  0.34533934  0.52356743  0.28332193  1
  C  C621  1  0.36590881  0.73650234  0.45796808  1
  C  C622  1  0.39038245  0.50275326  0.33776777  1
  C  C623  1  0.26176294  0.54412055  0.25239527  1
  C  C624  1  0.49022075  0.50431088  0.49339072  1
  C  C625  1  0.49056624  0.61638854  0.33892238  1
  O  O626  1  0.48640576  0.64512863  0.36698905  1
  C  C627  1  0.39844042  0.50093830  0.38654148  1
  H  H628  1  0.03178860  0.78023484  0.27314296  1
  C  C629  1  0.00014122  0.79394043  0.27777640  1
  H  H630  1  0.30032933  0.90916217  0.29964257  1
  C  C631  1  0.38237940  0.77262143  0.48642115  1
  C  C632  1  0.30221498  0.96968067  0.42944345  1
  C  C633  1  0.37373285  0.94752350  0.49624130  1
  C  C634  1  0.30371238  0.95579169  0.38424460  1
  H  H635  1  0.29684641  0.94551993  0.45634069  1
  C  C636  1  0.32384843  0.93088176  0.28471551  1
  C  C637  1  0.42638249  0.79546951  0.42300587  1
  C  C638  1  0.47633863  0.98510820  0.29554337  1
  H  H639  1  0.29779091  0.92226343  0.37586254  1
  O  O640  1  0.47691019  0.94535543  0.36511643  1
  Cu  Cu641  1  0.48238281  0.86309648  0.32700652  1
  C  C642  1  0.31751588  0.98658570  0.35028536  1
  H  H643  1  0.41843891  0.83079090  0.48678361  1
  C  C644  1  0.32983031  0.97213216  0.30238860  1
  O  O645  1  0.47047778  0.85658820  0.42548039  1
  H  H646  1  0.36907947  0.93511826  0.46111810  1
  O  O647  1  0.47255440  0.81701056  0.36205334  1
  O  O648  1  0.49266594  0.91328863  0.30161141  1
  C  C649  1  0.41380958  0.75872533  0.39730864  1
  H  H650  1  0.43325307  0.75603744  0.36507271  1
  C  C651  1  0.45893303  0.82402456  0.40406882  1
  C  C652  1  0.48355679  0.94670731  0.32199097  1
  C  C653  1  0.40926029  0.80409262  0.46721092  1
  Cu  Cu654  1  0.49915430  0.90134763  0.39989916  1
  H  H655  1  0.38600865  0.86208849  0.25203565  1
  O  O656  1  0.16606096  0.65193369  0.58240118  1
  Cu  Cu657  1  0.21900939  0.63785235  0.60947928  1
  Cu  Cu658  1  0.19916682  0.59047034  0.67625550  1
  C  C659  1  0.08363203  0.66812462  0.70767089  1
  H  H660  1  0.08323765  0.63371744  0.55815972  1
  H  H661  1  0.19437679  0.56095826  0.58679466  1
  C  C662  1  0.16677895  0.67365630  0.54411055  1
  C  C663  1  0.10762677  0.70864645  0.70682963  1
  C  C664  1  0.12541627  0.53891541  0.59691178  1
  C  C665  1  0.03707766  0.66567227  0.70134633  1
  H  H666  1  0.08731379  0.57535447  0.72454060  1
  C  C667  1  0.16210734  0.55344294  0.56823484  1
  C  C668  1  0.11583921  0.63863958  0.72640634  1
  C  C669  1  0.11447713  0.59558997  0.73666758  1
  N  N670  1  0.15165932  0.70135474  0.71762285  1
  H  H671  1  0.01733241  0.63482481  0.70584103  1
  C  C672  1  0.15896311  0.66066765  0.73294417  1
  O  O673  1  0.17206758  0.54172051  0.66228133  1
  O  O674  1  0.19592821  0.69807009  0.53421089  1
  C  C675  1  0.01420528  0.70012157  0.68659508  1
  C  C676  1  0.22976733  0.72898986  0.71740674  1
  C  C677  1  0.08719752  0.64613468  0.52400703  1
  C  C678  1  0.03656902  0.73933644  0.68249195  1
  C  C679  1  0.08427664  0.52857252  0.57867713  1
  C  C680  1  0.07735592  0.53207869  0.53041365  1
  C  C681  1  0.13244235  0.53637157  0.64676123  1
  C  C682  1  0.15871449  0.56175747  0.52190253  1
  C  C683  1  0.18336506  0.73450401  0.72751156  1
  C  C684  1  0.12664597  0.66925554  0.51201150  1
  O  O685  1  0.00089238  0.57476242  0.72112506  1
  H  H686  1  0.24088798  0.69820568  0.70516348  1
  O  O687  1  0.10422700  0.51964387  0.67320834  1
  H  H688  1  0.05844545  0.52167038  0.60504445  1
  C  C689  1  0.08115619  0.74403924  0.69032814  1
  C  C690  1  0.11562703  0.54960632  0.50464033  1
  H  H691  1  0.18498648  0.57883321  0.50171900  1
  O  O692  1  0.26173791  0.57915928  0.67523974  1
  H  H693  1  0.32037724  0.53112206  0.69510813  1
  O  O694  1  0.47113918  0.51969944  0.52746807  1
  C  C695  1  0.38596273  0.52409517  0.66144475  1
  O  O696  1  0.27764222  0.62955331  0.62649217  1
  C  C697  1  0.28931264  0.59681261  0.64918565  1
  C  C698  1  0.41712028  0.54337209  0.62551022  1
  C  C699  1  0.33294869  0.57761799  0.64195183  1
  C  C700  1  0.40448667  0.58104974  0.60206024  1
  C  C701  1  0.36186059  0.59601640  0.60943047  1
  H  H702  1  0.42818715  0.59282752  0.57791192  1
  H  H703  1  0.35167063  0.62430139  0.59027522  1
  H  H704  1  0.31156611  0.66996610  0.57097318  1
  C  C705  1  0.33150677  0.70024489  0.57294288  1
  C  C706  1  0.33999973  0.71980354  0.61440606  1
  H  H707  1  0.33033391  0.70963885  0.64856516  1
  C  C708  1  0.34405620  0.54261763  0.66889094  1
  N  N709  1  0.45614540  0.52422993  0.62343703  1
  H  H710  1  0.35640637  0.63260090  0.53391792  1
  C  C711  1  0.34763653  0.72031197  0.53144032  1
  H  H712  1  0.09579383  0.77610332  0.68412578  1
  H  H713  1  0.01595064  0.76573399  0.66813423  1
  Cu  Cu714  1  0.03434753  0.95508375  0.73802066  1
  C  C715  1  0.16547874  0.77274816  0.74427386  1
  C  C716  1  0.24215705  0.80244804  0.74216901  1
  O  O717  1  0.04935693  0.90255948  0.74994804  1
  O  O718  1  0.37562460  0.75612243  0.69412649  1
  C  C719  1  0.35821801  0.99811646  0.55889548  1
  C  C720  1  0.36073382  0.75999866  0.61584788  1
  C  C721  1  0.38384617  0.97539493  0.59126080  1
  C  C722  1  0.42273107  0.91019706  0.60935692  1
  H  H723  1  0.29312855  0.76082858  0.71295005  1
  C  C724  1  0.35118356  0.98452244  0.51108575  1
  Cu  Cu725  1  0.48825827  0.94733445  0.66827847  1
  C  C726  1  0.33448274  0.88264331  0.73607463  1
  C  C727  1  0.36840975  0.76197633  0.53355864  1
  C  C728  1  0.30818975  0.84872134  0.72516184  1
  H  H729  1  0.41278372  0.89331013  0.52274921  1
  C  C730  1  0.37369963  0.78121301  0.57608314  1
  H  H731  1  0.39181740  0.98543335  0.62672004  1
  H  H732  1  0.38964672  0.81140793  0.57690984  1
  H  H733  1  0.36502366  0.89145761  0.71674346  1
  Cu  Cu734  1  0.44386600  0.83847079  0.65462202  1
  O  O735  1  0.42822120  0.87227099  0.60322552  1
  O  O736  1  0.43278888  0.92657853  0.64695962  1
  C  C737  1  0.37481222  0.77785811  0.66096457  1
  O  O738  1  0.49747375  0.83637144  0.68701783  1
  H  H739  1  0.31224707  0.83023104  0.69383202  1
  C  C740  1  0.40027953  0.93807843  0.57426195  1
  C  C741  1  0.39773687  0.92440121  0.52869505  1
  C  C742  1  0.25875286  0.76360606  0.72477134  1
  O  O743  1  0.38696142  0.81670692  0.66275626  1
  C  C744  1  0.15213966  0.67998784  0.84978547  1
  C  C745  1  0.20441655  0.59282743  0.91655080  1
  C  C746  1  0.15568033  0.57857323  0.91805273  1
  C  C747  1  0.19662579  0.68740699  0.86119870  1
  H  H748  1  0.13717781  0.64871177  0.84625198  1
  H  H749  1  0.11065846  0.67784218  0.91186456  1
  C  C750  1  0.13718339  0.56636788  0.87582540  1
  C  C751  1  0.05624450  0.64333016  0.81028008  1
  H  H752  1  0.03107618  0.65111619  0.90400409  1
  C  C753  1  0.04952636  0.68589909  0.82309333  1
  C  C754  1  0.04610326  0.65505867  0.93803472  1
  C  C755  1  0.09556553  0.54724187  0.87526956  1
  C  C756  1  0.09139176  0.66764296  0.94396028  1
  C  C757  1  0.07168944  0.54257575  0.91768245  1
  H  H758  1  0.15740653  0.56746606  0.84336081  1
  C  C759  1  0.09153490  0.56047742  0.95975372  1
  C  C760  1  0.13476086  0.57798896  0.96096469  1
  O  O761  1  0.18577729  0.68486584  0.95823500  1
  H  H762  1  0.08927772  0.63127609  0.80066194  1
  H  H763  1  0.22151891  0.58491999  0.78085169  1
  C  C764  1  0.01960401  0.61751711  0.81226587  1
  C  C765  1  0.12540745  0.71563942  0.84142362  1
  N  N766  1  0.08212670  0.71842019  0.82312525  1
  C  C767  1  0.02257851  0.64625054  0.97912806  1
  C  C768  1  0.00748021  0.70165494  0.83691094  1
  C  C769  1  0.21194759  0.72807193  0.87392073  1
  O  O770  1  0.22249894  0.60849518  0.95282486  1
  C  C771  1  0.15424508  0.53344757  0.77274639  1
  H  H772  1  0.00400978  0.73510015  0.84408501  1
  H  H773  1  0.02099623  0.58602564  0.79984037  1
  H  H774  1  0.15419844  0.58570499  0.99343133  1
  H  H775  1  0.08409561  0.53380971  0.84079322  1
  O  O776  1  0.22399850  0.59179554  0.88020129  1
  C  C777  1  0.02869725  0.51797864  0.97899171  1
  N  N778  1  0.03611780  0.51704988  0.93120805  1
  O  O779  1  0.18848206  0.51885154  0.78765945  1
  C  C780  1  0.11087540  0.66916098  0.98853495  1
  H  H781  1  0.21881722  0.66054583  0.86237472  1
  H  H782  1  0.22927790  0.66209077  0.76270367  1
  C  C783  1  0.19501024  0.60079013  0.76376426  1
  C  C784  1  0.19916861  0.64323436  0.75259280  1
  C  C785  1  0.15395312  0.57858306  0.75633685  1
  O  O786  1  0.11738094  0.51131913  0.76695641  1
  H  H787  1  0.00709061  0.55326430  0.85470293  1
  H  H788  1  0.00456410  0.50900025  0.75559625  1
  Cu  Cu789  1  0.24557389  0.66104834  0.94873907  1
  C  C790  1  0.06275713  0.54707954  0.99847684  1
  C  C791  1  0.15910524  0.68111419  0.99292783  1
  C  C792  1  0.25376645  0.73084080  0.90148711  1
  O  O793  1  0.27782034  0.70065822  0.91471829  1
  C  C794  1  0.47852689  0.50376269  0.95758104  1
  H  H795  1  0.34311306  0.53214850  0.98717337  1
  C  C796  1  0.32895757  0.50109101  0.99583041  1
  C  C797  1  0.49365448  0.53176246  0.92215190  1
  H  H798  1  0.48920939  0.52612251  0.88648425  1
  H  H799  1  0.01335306  0.75492518  0.76919068  1
  C  C800  1  0.01885071  0.75492168  0.96218558  1
  C  C801  1  0.14339402  0.75843508  0.84533278  1
  C  C802  1  0.07213417  0.75957226  0.81182136  1
  C  C803  1  0.18694098  0.76402237  0.86390897  1
  C  C804  1  0.03934571  0.77834887  0.78188191  1
  O  O805  1  0.01474357  0.78499475  0.88713162  1
  C  C806  1  0.18022339  0.97370207  0.89466175  1
  O  O807  1  0.01428382  0.86722023  0.90362072  1
  C  C808  1  0.06289399  0.76929532  0.96816707  1
  C  C809  1  0.05319660  0.87360739  0.91898557  1
  O  O810  1  0.15413285  0.94107960  0.89854948  1
  H  H811  1  0.08211233  0.78244570  0.93963624  1
  H  H812  1  0.20188894  0.79363701  0.87225079  1
  C  C813  1  0.10836761  0.78717965  0.82839507  1
  O  O814  1  0.08553053  0.88216131  0.89245265  1
  C  C815  1  0.07682500  0.88934643  0.77986500  1
  Cu  Cu816  1  0.10552242  0.92763999  0.86129043  1
  O  O817  1  0.10244096  0.91529425  0.80147495  1
  H  H818  1  0.14152411  0.85040481  0.82940345  1
  C  C819  1  0.11255712  0.82963036  0.81668020  1
  C  C820  1  0.07763854  0.84468987  0.78914763  1
  H  H821  1  0.12331171  0.90609338  0.95964954  1
  C  C822  1  0.06128555  0.87400632  0.96891013  1
  H  H823  1  0.23097907  0.90312034  0.92636263  1
  H  H824  1  0.16835243  0.79642544  0.97885612  1
  C  C825  1  0.23065541  0.96891965  0.90178878  1
  C  C826  1  0.10097490  0.89209422  0.98576311  1
  C  C827  1  0.04003798  0.82099507  0.77270308  1
  C  C828  1  0.24952980  0.93238451  0.91992007  1
  H  H829  1  0.00226655  0.84053007  0.98797184  1
  H  H830  1  0.23094283  0.85807709  0.81418634  1
  O  O831  1  0.24369396  0.82146874  0.99621540  1
  H  H832  1  0.17690680  0.83634180  0.76036182  1
  H  H833  1  0.01593053  0.83693155  0.75132401  1
  H  H834  1  0.12776264  0.77704604  0.75263910  1
  C  C835  1  0.19428762  0.80595496  0.75130617  1
  H  H836  1  0.49931522  0.90768470  0.76064569  1
  C  C837  1  0.47912533  0.97042690  0.75323435  1
  N  N838  1  0.34745376  0.94627589  0.77458070  1
  H  H839  1  0.44483772  0.90120512  0.89661354  1
  N  N840  1  0.36752098  0.95843520  0.89753584  1
  H  H841  1  0.43844118  0.95358603  0.84156582  1
  C  C842  1  0.40404992  0.99543777  0.76379811  1
  H  H843  1  0.27718131  0.92151011  0.83247455  1
  C  C844  1  0.39759917  0.99065240  0.88820144  1
  C  C845  1  0.49273282  0.94011128  0.95367087  1
  C  C846  1  0.41371404  0.95049098  0.98825330  1
  C  C847  1  0.45506044  0.93224956  0.98382041  1
  C  C848  1  0.47138577  0.92828168  0.76041826  1
  C  C849  1  0.36924352  0.84008887  0.95399391  1
  H  H850  1  0.40165237  0.97827062  0.96656155  1
  C  C851  1  0.27008086  0.84051151  0.75282899  1
  C  C852  1  0.37484539  0.91725559  0.91039072  1
  H  H853  1  0.41440422  0.88691241  0.77481903  1
  C  C854  1  0.42590475  0.91798666  0.76704583  1
  C  C855  1  0.29649954  0.93268640  0.91591195  1
  C  C856  1  0.41071748  0.85427054  0.93525028  1
  C  C857  1  0.25828389  0.86694486  0.79267124  1
  Cu  Cu858  1  0.28094833  0.77926958  0.97258720  1
  C  C859  1  0.32613621  0.98449341  0.77800983  1
  C  C860  1  0.27879014  0.99303406  0.77975584  1
  H  H861  1  0.29826114  0.84877353  0.96215890  1
  O  O862  1  0.40574786  0.78035600  0.98498326  1
  C  C863  1  0.33135812  0.90193351  0.92755531  1
  C  C864  1  0.28383515  0.90067238  0.80292101  1
  C  C865  1  0.37242896  0.80158270  0.98169632  1
  H  H866  1  0.25436434  0.97029120  0.78786819  1
  C  C867  1  0.41389121  0.89140754  0.91095269  1
  O  O868  1  0.26603893  0.76689814  0.91336329  1
  C  C869  1  0.39355750  0.95055970  0.76844369  1
  C  C870  1  0.32969197  0.86188998  0.94791576  1
  C  C871  1  0.32196097  0.96992853  0.90140715  1
  C  C872  1  0.43425912  0.98322927  0.85751874  1
  C  C873  1  0.32159006  0.90866224  0.77285344  1
  H  H874  1  0.44126993  0.83354224  0.93588576  1
  O  O875  1  0.33279446  0.98542231  0.99992908  1
  C  C876  1  0.59271549  0.11630104  0.04340180  1
  Cu  Cu877  1  0.67470728  0.08268532  0.04371906  1
  C  C878  1  0.55904099  0.14851098  0.11264315  1
  H  H879  1  0.57667171  0.12156768  0.13092248  1
  C  C880  1  0.64155744  0.20612628  0.08331505  1
  O  O881  1  0.61805806  0.09329211  0.06683497  1
  C  C882  1  0.56437067  0.14771129  0.06555748  1
  C  C883  1  0.53012089  0.17517499  0.13564652  1
  C  C884  1  0.54654418  0.17926700  0.03957860  1
  H  H885  1  0.63494161  0.17690220  0.10357406  1
  H  H886  1  0.58849685  0.06574257  0.16699544  1
  C  C887  1  0.58789569  0.04102279  0.19179901  1
  C  C888  1  0.51873683  0.20841236  0.06137985  1
  H  H889  1  0.52542238  0.17496820  0.17281388  1
  H  H890  1  0.62233245  0.02756101  0.08781241  1
  O  O891  1  0.56353386  0.12036781  0.21733543  1
  O  O892  1  0.66023163  0.18905395  0.18664999  1
  Cu  Cu893  1  0.61341555  0.15447538  0.20559203  1
  O  O894  1  0.69247236  0.13313418  0.06689998  1
  O  O895  1  0.65810537  0.03271978  0.01933074  1
  C  C896  1  0.67197759  0.22560007  0.20835990  1
  C  C897  1  0.67465811  0.20588222  0.04819909  1
  O  O898  1  0.57961097  0.10622370  0.00337184  1
  H  H899  1  0.55568470  0.17970386  0.00265033  1
  O  O900  1  0.51143467  0.02781808  0.02556169  1
  O  O901  1  0.55026648  0.23948635  0.22181950  1
  C  C902  1  0.50700101  0.20648287  0.11068269  1
  C  C903  1  0.61632951  0.24245997  0.09228312  1
  C  C904  1  0.57655940  0.04780939  0.23732915  1
  H  H905  1  0.59100551  0.24484790  0.11813438  1
  C  C906  1  0.70220952  0.16695715  0.04214571  1
  H  H907  1  0.69227615  0.15218155  0.24940004  1
  C  C908  1  0.68275220  0.23925915  0.01894045  1
  O  O909  1  0.73122526  0.16948934  0.01516906  1
  H  H910  1  0.50969578  0.07568968  0.16022121  1
  H  H911  1  0.50339686  0.08488697  0.08265166  1
  C  C912  1  0.60903164  0.49183994  0.08258287  1
  O  O913  1  0.67128030  0.25838018  0.18931477  1
  H  H914  1  0.59707346  0.48168972  0.11647563  1
  H  H915  1  0.61015610  0.29041331  0.23559410  1
  C  C916  1  0.56203772  0.34079425  0.24514004  1
  H  H917  1  0.62344667  0.39460354  0.11099481  1
  C  C918  1  0.62456420  0.27814455  0.06409077  1
  C  C919  1  0.63150873  0.34473949  0.03428709  1
  H  H920  1  0.51182277  0.28685023  0.18140492  1
  H  H921  1  0.54141937  0.28254739  0.09936276  1
  N  N922  1  0.61318000  0.31968018  0.06771336  1
  C  C923  1  0.55162225  0.30780113  0.12167460  1
  C  C924  1  0.56076938  0.34259606  0.19323227  1
  C  C925  1  0.60015321  0.37237361  0.12858448  1
  H  H926  1  0.59947461  0.40097127  0.19798840  1
  C  C927  1  0.63283451  0.38905667  0.02691229  1
  C  C928  1  0.58805438  0.37502272  0.17450016  1
  C  C929  1  0.53665650  0.31045703  0.16762651  1
  C  C930  1  0.58545935  0.33470584  0.10520475  1
  O  O931  1  0.54124000  0.43470679  0.08399897  1
  C  C932  1  0.65792109  0.27601057  0.02610988  1
  C  C933  1  0.54845154  0.45007198  0.04382860  1
  C  C934  1  0.58669117  0.47878587  0.04231466  1
  H  H935  1  0.61365565  0.40929155  0.04918672  1
  C  C936  1  0.50399445  0.27159093  0.00732241  1
  C  C937  1  0.66035815  0.31786727  0.00408532  1
  O  O938  1  0.53060197  0.43464235  0.00843718  1
  H  H939  1  0.98517841  0.48149727  0.07988683  1
  C  C940  1  0.99886836  0.49651677  0.00781314  1
  H  H941  1  0.58676837  0.12033954  0.40589061  1
  C  C942  1  0.56288434  0.18474495  0.42581408  1
  C  C943  1  0.58049397  0.14530925  0.43361335  1
  H  H944  1  0.58752894  0.17500159  0.32899240  1
  C  C945  1  0.56175045  0.19806483  0.33539878  1
  C  C946  1  0.54952695  0.20457389  0.38103284  1
  O  O947  1  0.61416806  0.07029208  0.46722868  1
  C  C948  1  0.69169037  0.17957531  0.27246221  1
  C  C949  1  0.70255216  0.17411374  0.31926258  1
  C  C950  1  0.70796395  0.13539480  0.34651341  1
  H  H951  1  0.71961361  0.08293219  0.29830818  1
  C  C952  1  0.71259071  0.09350637  0.33295763  1
  C  C953  1  0.70454379  0.14888257  0.39546031  1
  C  C954  1  0.70340911  0.06608151  0.36893322  1
  C  C955  1  0.69935046  0.20917314  0.35103564  1
  N  N956  1  0.70019162  0.19274385  0.39522242  1
  C  C957  1  0.68519979  0.21382026  0.43580664  1
  C  C958  1  0.69901122  0.07733715  0.41570317  1
  C  C959  1  0.69870103  0.11840825  0.43055115  1
  C  C960  1  0.54506749  0.22483505  0.30192271  1
  C  C961  1  0.54627801  0.21388598  0.46217786  1
  H  H962  1  0.57041750  0.02623373  0.30726433  1
  H  H963  1  0.68940637  0.05393227  0.44009713  1
  O  O964  1  0.55060776  0.10128780  0.28817242  1
  C  C965  1  0.57636595  0.01684718  0.27250176  1
  C  C966  1  0.68539484  0.22152380  0.25878476  1
  C  C967  1  0.59141328  0.13869422  0.47965822  1
  H  H968  1  0.69370019  0.12825586  0.46581825  1
  C  C969  1  0.56244432  0.21944822  0.25346243  1
  C  C970  1  0.70091384  0.01966285  0.36274475  1
  C  C971  1  0.70476954  0.19666518  0.47585410  1
  C  C972  1  0.65288739  0.24719936  0.43213645  1
  H  H973  1  0.73178675  0.17429330  0.47401517  1
  C  C974  1  0.52175186  0.24092696  0.39244741  1
  O  O975  1  0.59567855  0.19118938  0.25100865  1
  N  N976  1  0.52105324  0.24373747  0.43947955  1
  O  O977  1  0.70767050  0.00788555  0.32343285  1
  C  C978  1  0.61047177  0.09650206  0.49558200  1
  C  C979  1  0.56367462  0.09255711  0.25016633  1
  C  C980  1  0.69862323  0.25154691  0.33202281  1
  C  C981  1  0.68783582  0.25728895  0.28565422  1
  H  H982  1  0.64050471  0.25936329  0.39859206  1
  C  C983  1  0.64043864  0.26392333  0.47418879  1
  C  C984  1  0.51820332  0.26178180  0.31054907  1
  H  H985  1  0.50624221  0.38183425  0.47761306  1
  H  H986  1  0.70235521  0.27807196  0.35522864  1
  H  H987  1  0.61919636  0.29089605  0.47318815  1
  C  C988  1  0.50673406  0.26888256  0.35527376  1
  H  H989  1  0.50768556  0.28128921  0.27940992  1
  H  H990  1  0.68373943  0.28774356  0.27099664  1
  C  C991  1  0.56120969  0.48551372  0.31756724  1
  H  H992  1  0.68752830  0.34142905  0.28613105  1
  H  H993  1  0.63786651  0.29994077  0.32416836  1
  H  H994  1  0.55314565  0.41185141  0.33436316  1
  C  C995  1  0.61217602  0.31879946  0.30481482  1
  C  C996  1  0.59810987  0.35440071  0.33064723  1
  H  H997  1  0.54644927  0.39476753  0.41013451  1
  C  C998  1  0.57957376  0.40030101  0.42505637  1
  C  C999  1  0.61984387  0.38568533  0.40576903  1
  N  N1000  1  0.62971103  0.36579012  0.36435160  1
  C  C1001  1  0.56124724  0.38115165  0.31752494  1
  C  C1002  1  0.54112277  0.37200051  0.27575127  1
  C  C1003  1  0.66318717  0.39326350  0.42988896  1
  C  C1004  1  0.67562068  0.36057131  0.35599792  1
  C  C1005  1  0.69747712  0.37580022  0.39871432  1
  C  C1006  1  0.70453352  0.35060035  0.31827197  1
  C  C1007  1  0.58235200  0.42798642  0.46312191  1
  C  C1008  1  0.66373235  0.41911554  0.46851461  1
  C  C1009  1  0.53792748  0.46096445  0.28328211  1
  H  H1010  1  0.52014617  0.46729392  0.41193900  1
  H  H1011  1  0.53148983  0.32566520  0.42498279  1
  C  C1012  1  0.51255209  0.31829913  0.45600169  1
  C  C1013  1  0.59579025  0.31251222  0.26023059  1
  O  O1014  1  0.62716913  0.46378247  0.28295420  1
  C  C1015  1  0.74406055  0.37671881  0.40140390  1
  C  C1016  1  0.60993098  0.48504530  0.31201953  1
  H  H1017  1  0.51299494  0.39099389  0.26456161  1
  H  H1018  1  0.69572455  0.42571407  0.48474869  1
  H  H1019  1  0.55304812  0.44175495  0.47645175  1
  C  C1020  1  0.62461261  0.43734153  0.48364084  1
  H  H1021  1  0.55969003  0.44551951  0.25851817  1
  H  H1022  1  0.99150757  0.33527964  0.41572204  1
  O  O1023  1  0.83852761  0.35438766  0.33343924  1
  C  C1024  1  0.75031569  0.35071309  0.31970966  1
  H  H1025  1  0.77271213  0.34393702  0.29139035  1
  C  C1026  1  0.92938625  0.48385581  0.46259712  1
  O  O1027  1  0.84008949  0.38180226  0.40223312  1
  C  C1028  1  0.81720826  0.36822475  0.36409762  1
  O  O1029  1  0.92538829  0.32818190  0.46568776  1
  Cu  Cu1030  1  0.88375692  0.35485170  0.43269947  1
  C  C1031  1  0.99427365  0.36126086  0.48416551  1
  H  H1032  1  0.76120904  0.38623710  0.43254292  1
  C  C1033  1  0.76769809  0.36535826  0.36182497  1
  Cu  Cu1034  1  0.87310910  0.43235561  0.41902970  1
  C  C1035  1  0.94689225  0.35321027  0.49152846  1
  O  O1036  1  0.90519931  0.47964939  0.42590414  1
  O  O1037  1  0.92122620  0.46039505  0.49687766  1
  C  C1038  1  0.61105729  0.13569201  0.62984979  1
  H  H1039  1  0.61312173  0.12789430  0.59236670  1
  O  O1040  1  0.69409161  0.12161479  0.59192841  1
  C  C1041  1  0.56937744  0.14098793  0.64919855  1
  C  C1042  1  0.64990831  0.13947967  0.65646113  1
  H  H1043  1  0.59691819  0.16468661  0.54625057  1
  C  C1044  1  0.69152177  0.12858945  0.63507699  1
  C  C1045  1  0.56516548  0.14531556  0.69967862  1
  C  C1046  1  0.64645417  0.14568543  0.70423983  1
  H  H1047  1  0.52542509  0.14427627  0.55516408  1
  O  O1048  1  0.62699179  0.09242325  0.53695137  1
  Cu  Cu1049  1  0.67614992  0.07099503  0.56428591  1
  C  C1050  1  0.52359393  0.13966720  0.62946110  1
  C  C1051  1  0.68887868  0.21141791  0.51870009  1
  H  H1052  1  0.65902416  0.20689170  0.59968324  1
  H  H1053  1  0.67605821  0.14502382  0.72488710  1
  H  H1054  1  0.54421686  0.22022865  0.54267268  1
  C  C1055  1  0.60436679  0.15170085  0.72629041  1
  C  C1056  1  0.58213772  0.16870934  0.51422855  1
  O  O1057  1  0.72347100  0.11991763  0.66407502  1
  O  O1058  1  0.73012718  0.04053463  0.57791209  1
  C  C1059  1  0.65442232  0.24307672  0.51669854  1
  N  N1060  1  0.51902046  0.13892792  0.70819231  1
  H  H1061  1  0.70462483  0.20151539  0.55026394  1
  C  C1062  1  0.63283698  0.22939228  0.59809995  1
  H  H1063  1  0.60588041  0.21801129  0.66705874  1
  C  C1064  1  0.55558383  0.20361646  0.50947847  1
  Cu  Cu1065  1  0.74438612  0.06585664  0.68564811  1
  C  C1066  1  0.73666264  0.01246651  0.60888808  1
  O  O1067  1  0.71963465  0.02642879  0.72647682  1
  C  C1068  1  0.50528699  0.14164008  0.58546225  1
  C  C1069  1  0.60081673  0.23427739  0.63353817  1
  O  O1070  1  0.75408474  0.02264559  0.64713199  1
  C  C1071  1  0.98117398  0.23846473  0.72633344  1
  C  C1072  1  0.99823250  0.16438225  0.73310033  1
  C  C1073  1  0.99086595  0.07511079  0.74053946  1
  C  C1074  1  0.98968288  0.02847352  0.74317886  1
  C  C1075  1  0.62606816  0.25404939  0.55775616  1
  H  H1076  1  0.52893362  0.47795514  0.66750224  1
  C  C1077  1  0.56371960  0.26132617  0.62523664  1
  C  C1078  1  0.58724357  0.28166351  0.55121542  1
  N  N1079  1  0.52989927  0.26905920  0.65889936  1
  O  O1080  1  0.66475378  0.47806290  0.54304900  1
  O  O1081  1  0.59054241  0.46429230  0.68145707  1
  H  H1082  1  0.51601085  0.46713449  0.58663830  1
  C  C1083  1  0.62980971  0.46744934  0.52211005  1
  C  C1084  1  0.55528802  0.28487801  0.58400014  1
  H  H1085  1  0.52379953  0.30295608  0.58025393  1
  C  C1086  1  0.65408190  0.34762833  0.69772134  1
  H  H1087  1  0.60331490  0.38026585  0.65447387  1
  C  C1088  1  0.63236926  0.35977447  0.65569450  1
  C  C1089  1  0.69262412  0.31869954  0.69776960  1
  C  C1090  1  0.65451135  0.34573570  0.61591508  1
  C  C1091  1  0.67612520  0.44126745  0.68570509  1
  H  H1092  1  0.65380583  0.43254910  0.65713334  1
  C  C1093  1  0.69130975  0.31790937  0.61307115  1
  C  C1094  1  0.53802452  0.28670085  0.70195629  1
  O  O1095  1  0.59152313  0.37165898  0.57044893  1
  C  C1096  1  0.62955229  0.35901589  0.57096359  1
  O  O1097  1  0.65183696  0.35667099  0.53481477  1
  C  C1098  1  0.65971996  0.46174689  0.72512762  1
  C  C1099  1  0.60992264  0.47564161  0.71586126  1
  C  C1100  1  0.72213403  0.43419967  0.68494214  1
  H  H1101  1  0.70496227  0.31099361  0.57828926  1
  C  C1102  1  0.70922749  0.30418350  0.65473499  1
  H  H1103  1  0.53169609  0.40293400  0.54043831  1
  H  H1104  1  0.58173929  0.29635302  0.51724089  1
  H  H1105  1  0.72285271  0.41231067  0.58244418  1
  H  H1106  1  0.60952588  0.27902945  0.72186392  1
  C  C1107  1  0.57536976  0.28755202  0.73260322  1
  O  O1108  1  0.59212903  0.48414414  0.53161036  1
  C  C1109  1  0.64887548  0.35533607  0.74695175  1
  N  N1110  1  0.70919565  0.31135555  0.74290073  1
  H  H1111  1  0.74182767  0.28580589  0.65415100  1
  C  C1112  1  0.74781896  0.44476437  0.72714370  1
  H  H1113  1  0.50996022  0.44296139  0.74270001  1
  H  H1114  1  0.59472791  0.40234563  0.74777475  1
  N  N1115  1  0.99853226  0.38555635  0.68432540  1
  C  C1116  1  0.84892718  0.28417267  0.74892959  1
  C  C1117  1  0.89931308  0.27698081  0.74424764  1
  C  C1118  1  0.99986196  0.49231476  0.72280528  1
  C  C1119  1  0.97995780  0.45208527  0.63565083  1
  C  C1120  1  0.75569345  0.30163797  0.74839691  1
  O  O1121  1  0.83279351  0.37878330  0.51677802  1
  Cu  Cu1122  1  0.87889481  0.41509332  0.50549824  1
  H  H1123  1  0.96794006  0.30900627  0.55228081  1
  H  H1124  1  0.77633743  0.36403227  0.72607716  1
  C  C1125  1  0.96241355  0.26354957  0.69072488  1
  H  H1126  1  0.99947201  0.38974564  0.55460390  1
  H  H1127  1  0.99383973  0.49021539  0.53365844  1
  N  N1128  1  0.79262189  0.43171040  0.72038869  1
  H  H1129  1  0.86417533  0.37768261  0.58919415  1
  C  C1130  1  0.75682993  0.42127466  0.65009323  1
  C  C1131  1  0.75324213  0.40964386  0.60407339  1
  C  C1132  1  0.97459071  0.34571366  0.61556084  1
  H  H1133  1  0.87143878  0.39918326  0.67514321  1
  C  C1134  1  0.79897335  0.41787961  0.67487059  1
  H  H1135  1  0.98269913  0.26750006  0.65799007  1
  C  C1136  1  0.79391385  0.38898514  0.53517905  1
  C  C1137  1  0.87223162  0.44525022  0.73714196  1
  O  O1138  1  0.92484601  0.37588487  0.52081045  1
  O  O1139  1  0.76142444  0.39330460  0.51147359  1
  H  H1140  1  0.91021433  0.30531347  0.67876237  1
  H  H1141  1  0.94055245  0.36323375  0.61495263  1
  H  H1142  1  0.85977012  0.34762322  0.72687594  1
  C  C1143  1  0.78880865  0.33291216  0.73746417  1
  C  C1144  1  0.99656350  0.42855780  0.67428729  1
  C  C1145  1  0.83451263  0.32404520  0.73551859  1
  C  C1146  1  0.84064962  0.40200101  0.65449942  1
  H  H1147  1  0.88108475  0.44614642  0.69993391  1
  C  C1148  1  0.92523108  0.28612892  0.70309803  1
  C  C1149  1  0.98865465  0.31868313  0.58109478  1
  C  C1150  1  0.79443360  0.39778227  0.58550948  1
  C  C1151  1  0.97971662  0.49620326  0.63772018  1
  H  H1152  1  0.96805986  0.43629272  0.60436831  1
  C  C1153  1  0.83680174  0.39217994  0.60791145  1
  C  C1154  1  0.56739649  0.17408451  0.91406580  1
  H  H1155  1  0.56532952  0.16248490  0.94951575  1
  C  C1156  1  0.53661353  0.10640110  0.78409949  1
  C  C1157  1  0.60835899  0.17560767  0.89059337  1
  O  O1158  1  0.60733990  0.02831652  0.89079969  1
  H  H1159  1  0.53947786  0.06307611  0.84329757  1
  C  C1160  1  0.57184882  0.02278993  0.90967327  1
  H  H1161  1  0.64089385  0.16470140  0.90522703  1
  C  C1162  1  0.52955387  0.20631615  0.84688878  1
  O  O1163  1  0.54787842  0.05533227  0.92413846  1
  C  C1164  1  0.56921689  0.20608580  0.82156857  1
  C  C1165  1  0.60684918  0.19121426  0.84589448  1
  C  C1166  1  0.52762968  0.19219603  0.89431868  1
  C  C1167  1  0.51899089  0.08552978  0.82237609  1
  H  H1168  1  0.60286042  0.15325055  0.76444804  1
  O  O1169  1  0.64878895  0.21629143  0.78283652  1
  C  C1170  1  0.65251778  0.19944273  0.82030472  1
  O  O1171  1  0.68951665  0.18890233  0.83395172  1
  H  H1172  1  0.70964655  0.23857152  0.99264592  1
  H  H1173  1  0.57407699  0.21864976  0.78711388  1
  H  H1174  1  0.57068780  0.10024346  0.77292594  1
  C  C1175  1  0.50564995  0.12760252  0.75402466  1
  Cu  Cu1176  1  0.54915592  0.05408188  0.98880950  1
  C  C1177  1  0.73556115  0.01497090  0.76680724  1
  H  H1178  1  0.74809146  0.23534176  0.77584658  1
  O  O1179  1  0.55008576  0.00714602  0.76043254  1
  O  O1180  1  0.95753067  0.01060929  0.76080525  1
  H  H1181  1  0.97609014  0.21663640  0.79595191  1
  C  C1182  1  0.95977292  0.23702813  0.77089934  1
  O  O1183  1  0.76238082  0.03429394  0.78808837  1
  H  H1184  1  0.83046490  0.22149273  0.77084271  1
  H  H1185  1  0.93524082  0.08859407  0.78148641  1
  C  C1186  1  0.96192500  0.14681766  0.75692005  1
  C  C1187  1  0.96102661  0.10227642  0.75881968  1
  H  H1188  1  0.93383714  0.16497179  0.77268699  1
  C  C1189  1  0.59891128  0.49400906  0.99780457  1
  H  H1190  1  0.57848522  0.48424322  0.96759995  1
  Cu  Cu1191  1  0.58556311  0.49392433  0.80782389  1
  H  H1192  1  0.66712502  0.48600379  0.79751084  1
  C  C1193  1  0.52149358  0.33740638  0.83575539  1
  C  C1194  1  0.52501100  0.31900759  0.79037447  1
  O  O1195  1  0.58523376  0.41438955  0.88348643  1
  O  O1196  1  0.55515240  0.33816641  0.86364198  1
  H  H1197  1  0.59686997  0.31155116  0.79639146  1
  C  C1198  1  0.56769763  0.30658301  0.77506088  1
  C  C1199  1  0.58983762  0.41581405  0.83889435  1
  H  H1200  1  0.66302256  0.37909299  0.88026652  1
  C  C1201  1  0.65811514  0.36967391  0.84216754  1
  O  O1202  1  0.56700369  0.43786136  0.81385309  1
  C  C1203  1  0.62446227  0.39035445  0.81710151  1
  Cu  Cu1204  1  0.55425190  0.37446862  0.91112557  1
  C  C1205  1  0.68907878  0.34387437  0.82258688  1
  C  C1206  1  0.68085558  0.38106081  0.95931049  1
  H  H1207  1  0.71782490  0.33514776  0.84451241  1
  C  C1208  1  0.62248825  0.38407922  0.76989451  1
  C  C1209  1  0.68470662  0.33455527  0.77437653  1
  H  H1210  1  0.70640826  0.31906989  0.94484779  1
  O  O1211  1  0.52352944  0.33170599  0.94805041  1
  O  O1212  1  0.70049205  0.39858006  0.92697152  1
  C  C1213  1  0.68494603  0.33575098  0.96870280  1
  C  C1214  1  0.72816237  0.46483342  0.76556751  1
  C  C1215  1  0.68270970  0.47438527  0.76570227  1
  H  H1216  1  0.65190643  0.43794438  0.98541715  1
  C  C1217  1  0.65561515  0.40629193  0.99129619  1
  H  H1218  1  0.53495735  0.26949622  0.98409773  1
  H  H1219  1  0.74908770  0.47449789  0.79473275  1
  H  H1220  1  0.89994062  0.25063498  0.81569432  1
  C  C1221  1  0.91918973  0.25510077  0.78283577  1
  C  C1222  1  0.89697028  0.45794922  0.81641881  1
  C  C1223  1  0.93821817  0.47124731  0.84489826  1
  C  C1224  1  0.85331389  0.44734447  0.83443007  1
  H  H1225  1  0.78577597  0.42708506  0.81113204  1
  O  O1226  1  0.84580609  0.44867699  0.95484516  1
  H  H1227  1  0.93218405  0.41828721  0.89266184  1
  C  C1228  1  0.84778560  0.48166410  0.95233213  1
  H  H1229  1  0.97327501  0.47693295  0.99330615  1
  H  H1230  1  0.99654674  0.43817991  0.93867971  1
  H  H1231  1  0.84744603  0.44734495  0.87047266  1
  C  C1232  1  0.81653806  0.25267812  0.76332702  1
  C  C1233  1  0.98626045  0.46066682  0.90996245  1
  C  C1234  1  0.94930200  0.44690821  0.88511720  1
  C  C1235  1  0.77039164  0.26224871  0.76229121  1
  C  C1236  1  0.90475709  0.45787563  0.76860185  1
  C  C1237  1  0.81917490  0.44052138  0.80239995  1
  H  H1238  1  0.93836540  0.46454926  0.75584066  1
  C  C1239  1  0.82654984  0.43672557  0.75236420  1
  C  C1240  1  0.59337588  0.60932163  0.08294334  1
  H  H1241  1  0.60547466  0.60727806  0.15610471  1
  C  C1242  1  0.58417753  0.59607127  0.12816662  1
  C  C1243  1  0.72536300  0.66380454  0.17175142  1
  C  C1244  1  0.55639157  0.56138655  0.13899930  1
  C  C1245  1  0.67502520  0.66846176  0.17543964  1
  O  O1246  1  0.57757811  0.57035166  0.21709663  1
  C  C1247  1  0.64208389  0.65942400  0.20898843  1
  C  C1248  1  0.59859632  0.67527775  0.19913480  1
  C  C1249  1  0.68190706  0.53929922  0.15825812  1
  H  H1250  1  0.61920698  0.63316590  0.07520546  1
  C  C1251  1  0.55628130  0.54696781  0.18800831  1
  C  C1252  1  0.71557548  0.55670035  0.08251084  1
  C  C1253  1  0.68072893  0.53588390  0.11023128  1
  C  C1254  1  0.58594314  0.69946263  0.16013380  1
  C  C1255  1  0.66096585  0.68934839  0.13334397  1
  N  N1256  1  0.69882184  0.69520487  0.10527097  1
  C  C1257  1  0.61615802  0.70513439  0.12555059  1
  C  C1258  1  0.72168773  0.55518314  0.17651439  1
  C  C1259  1  0.69689469  0.71725863  0.06273269  1
  C  C1260  1  0.52857677  0.56045381  0.06105475  1
  C  C1261  1  0.65871671  0.71208827  0.03415481  1
  C  C1262  1  0.56201722  0.59333002  0.05048768  1
  H  H1263  1  0.63213850  0.68957715  0.04325982  1
  N  N1264  1  0.69906384  0.55531163  0.03815775  1
  C  C1265  1  0.66041552  0.53165381  0.03292859  1
  H  H1266  1  0.55216530  0.71240212  0.15937920  1
  C  C1267  1  0.72207604  0.55678814  0.22632896  1
  C  C1268  1  0.73646445  0.67807731  0.12418428  1
  C  C1269  1  0.64671506  0.51789877  0.07887664  1
  C  C1270  1  0.53163340  0.54135909  0.10476205  1
  H  H1271  1  0.60946348  0.72304605  0.09481997  1
  H  H1272  1  0.65446365  0.52792234  0.18204032  1
  O  O1273  1  0.53722565  0.51689448  0.20127102  1
  C  C1274  1  0.50975945  0.54653591  0.01594195  1
  H  H1275  1  0.64828139  0.60204105  0.01149501  1
  H  H1276  1  0.74532972  0.64388979  0.24044165  1
  C  C1277  1  0.73661946  0.74090091  0.05239946  1
  H  H1278  1  0.64975040  0.64744329  0.24359515  1
  H  H1279  1  0.72227384  0.63751400  0.03010945  1
  O  O1280  1  0.52591318  0.68329850  0.22945162  1
  C  C1281  1  0.56421678  0.66624588  0.23346732  1
  C  C1282  1  0.72473662  0.57383251  0.00134452  1
  H  H1283  1  0.51342148  0.51307797  0.11202291  1
  C  C1284  1  0.73935650  0.61644962  0.00698579  1
  H  H1285  1  0.71421713  0.74972583  0.14716544  1
  O  O1286  1  0.68735957  0.54760469  0.24914999  1
  N  N1287  1  0.55736689  0.60125271  0.00269323  1
  C  C1288  1  0.75456760  0.65429814  0.20655815  1
  C  C1289  1  0.75604391  0.57288724  0.10357985  1
  C  C1290  1  0.75833367  0.57171027  0.15034803  1
  H  H1291  1  0.78433621  0.58762283  0.08345044  1
  C  C1292  1  0.78335891  0.67331085  0.11032537  1
  H  H1293  1  0.78520370  0.58661806  0.16831402  1
  H  H1294  1  0.79682376  0.67960580  0.07534350  1
  C  C1295  1  0.80010567  0.65160088  0.19071968  1
  C  C1296  1  0.81350356  0.66141314  0.14452644  1
  C  C1297  1  0.83238482  0.63916865  0.22363128  1
  O  O1298  1  0.87317231  0.63603271  0.21062543  1
  C  C1299  1  0.94439498  0.61941859  0.11535258  1
  H  H1300  1  0.91655783  0.60654810  0.13554068  1
  C  C1301  1  0.93489874  0.62564573  0.06951211  1
  O  O1302  1  0.95548397  0.60704921  0.20827607  1
  Cu  Cu1303  1  0.92784927  0.65716430  0.22645782  1
  C  C1304  1  0.97218009  0.63596838  0.03994711  1
  H  H1305  1  0.84919686  0.65953856  0.13551072  1
  H  H1306  1  0.90204222  0.61777039  0.05315438  1
  O  O1307  1  0.82644902  0.71212852  0.02733904  1
  C  C1308  1  0.98660690  0.62417223  0.13718467  1
  H  H1309  1  0.98042193  0.72831763  0.22090436  1
  C  C1310  1  0.99093899  0.61241714  0.18638091  1
  H  H1311  1  0.98459921  0.71955390  0.06869115  1
  C  C1312  1  0.89378026  0.73918633  0.21181055  1
  H  H1313  1  0.76760391  0.74476801  0.07366517  1
  H  H1314  1  0.99022474  0.74682321  0.13556981  1
  O  O1315  1  0.90762517  0.71049689  0.24166673  1
  O  O1316  1  0.75918556  0.56655308  0.24487301  1
  C  C1317  1  0.84375192  0.74758319  0.21743874  1
  H  H1318  1  0.50385649  0.79949505  0.02770285  1
  H  H1319  1  0.50484176  0.83652097  0.12960061  1
  C  C1320  1  0.51956306  0.99372024  0.04845023  1
  O  O1321  1  0.50605830  0.76403174  0.14532759  1
  N  N1322  1  0.70509169  0.76149135  0.23385423  1
  O  O1323  1  0.71075639  0.98434987  0.00765773  1
  C  C1324  1  0.54077293  0.86061645  0.02779431  1
  C  C1325  1  0.67998541  0.99760031  0.02950496  1
  C  C1326  1  0.63652689  0.99786373  0.10118089  1
  C  C1327  1  0.73419610  0.76063557  0.00928912  1
  C  C1328  1  0.53005120  0.81987368  0.04502826  1
  C  C1329  1  0.68504938  0.77052757  0.15561126  1
  H  H1330  1  0.66939165  0.79254494  0.08748015  1
  O  O1331  1  0.55212640  0.97221674  0.04083687  1
  H  H1332  1  0.52510803  0.92078126  0.09244037  1
  C  C1333  1  0.63095299  0.98247634  0.14611643  1
  C  C1334  1  0.55420268  0.80210633  0.08101012  1
  H  H1335  1  0.69791782  0.89520172  0.14112729  1
  H  H1336  1  0.63426704  0.87782752  0.09165459  1
  C  C1337  1  0.60349701  0.86597518  0.07801606  1
  C  C1338  1  0.58836630  0.82841735  0.09851290  1
  C  C1339  1  0.65926391  0.79337726  0.12365270  1
  C  C1340  1  0.60412808  0.80862480  0.18596404  1
  C  C1341  1  0.62900071  0.78949411  0.21874122  1
  C  C1342  1  0.67337190  0.77470729  0.20255819  1
  C  C1343  1  0.61769029  0.81088681  0.13760213  1
  H  H1344  1  0.57377059  0.82416786  0.19533629  1
  C  C1345  1  0.64765319  0.94119675  0.15932655  1
  N  N1346  1  0.62913042  0.93248359  0.20260134  1
  C  C1347  1  0.67897752  0.92136380  0.12922824  1
  C  C1348  1  0.68863429  0.94005247  0.08690026  1
  C  C1349  1  0.66742119  0.97682850  0.07392068  1
  H  H1350  1  0.54398825  0.77127401  0.09529599  1
  C  C1351  1  0.60279121  0.96641274  0.21842587  1
  H  H1352  1  0.71363133  0.92684816  0.06324456  1
  H  H1353  1  0.70748969  0.88466225  0.20256598  1
  C  C1354  1  0.57747960  0.88565388  0.04403384  1
  C  C1355  1  0.60304280  0.99925354  0.18333033  1
  C  C1356  1  0.68348804  0.88051479  0.23092810  1
  C  C1357  1  0.63914007  0.89999513  0.23229156  1
  H  H1358  1  0.58515729  0.91625254  0.03027867  1
  C  C1359  1  0.77619970  0.78558704  0.18985048  1
  O  O1360  1  0.91626742  0.75259096  0.18125052  1
  H  H1361  1  0.83945081  0.79393894  0.16120661  1
  O  O1362  1  0.88247102  0.75295700  0.00958113  1
  H  H1363  1  0.75885948  0.80973755  0.16842929  1
  C  C1364  1  0.75131948  0.76444088  0.22520029  1
  C  C1365  1  0.82177835  0.77516298  0.18657980  1
  H  H1366  1  0.94047786  0.88345499  0.24292354  1
  H  H1367  1  0.76494296  0.77819982  0.00163575  1
  C  C1368  1  0.70986068  0.61708478  0.34180125  1
  O  O1369  1  0.67736488  0.59256064  0.34483041  1
  C  C1370  1  0.70390652  0.65958427  0.32217194  1
  H  H1371  1  0.62991947  0.65977967  0.31893405  1
  C  C1372  1  0.66182832  0.67699908  0.30933725  1
  Cu  Cu1373  1  0.68036204  0.54095620  0.31289647  1
  O  O1374  1  0.52984679  0.59615207  0.33332258  1
  H  H1375  1  0.70768165  0.70910732  0.39364774  1
  C  C1376  1  0.71802519  0.69749924  0.42796972  1
  Cu  Cu1377  1  0.55714174  0.58627147  0.27646890  1
  O  O1378  1  0.71248094  0.57182182  0.45279563  1
  H  H1379  1  0.70214075  0.63561689  0.40758027  1
  C  C1380  1  0.71364488  0.65481288  0.43692664  1
  O  O1381  1  0.57144214  0.64137852  0.26545093  1
  C  C1382  1  0.72893945  0.63734822  0.47975757  1
  C  C1383  1  0.65784623  0.71354903  0.28296463  1
  O  O1384  1  0.52805612  0.51914286  0.47730629  1
  C  C1385  1  0.72783071  0.72612611  0.46464127  1
  C  C1386  1  0.72384549  0.59152934  0.48635128  1
  H  H1387  1  0.56024542  0.53057662  0.37120783  1
  C  C1388  1  0.74097988  0.71753599  0.28483550  1
  H  H1389  1  0.62648858  0.72451228  0.27202608  1
  C  C1390  1  0.69806314  0.73626687  0.27298351  1
  C  C1391  1  0.74266587  0.68139950  0.31232134  1
  O  O1392  1  0.74864643  0.60221414  0.34449567  1
  O  O1393  1  0.63557649  0.51029636  0.33887660  1
  C  C1394  1  0.53905364  0.51109827  0.35008500  1
  C  C1395  1  0.96990253  0.50706600  0.46206701  1
  H  H1396  1  0.99426130  0.72445294  0.46197580  1
  H  H1397  1  0.96790362  0.70731239  0.27748321  1
  H  H1398  1  0.77679882  0.66939024  0.31978837  1
  C  C1399  1  0.94777586  0.62102215  0.42978203  1
  H  H1400  1  0.93421078  0.62557107  0.39617533  1
  C  C1401  1  0.92280926  0.60101378  0.46435092  1
  H  H1402  1  0.89032996  0.58810978  0.45629080  1
  Cu  Cu1403  1  0.78140188  0.59619764  0.29219274  1
  H  H1404  1  0.84022618  0.70044676  0.27150377  1
  O  O1405  1  0.82314779  0.63248795  0.26642850  1
  C  C1406  1  0.98286446  0.53002231  0.42206359  1
  H  H1407  1  0.95863700  0.53176331  0.39271316  1
  H  H1408  1  0.95105221  0.67989051  0.35688752  1
  C  C1409  1  0.77684115  0.73643334  0.25587117  1
  C  C1410  1  0.82291120  0.72699834  0.25431643  1
  C  C1411  1  0.96432280  0.74343730  0.45387656  1
  C  C1412  1  0.98578441  0.67595381  0.34177384  1
  H  H1413  1  0.98216535  0.74673163  0.38303496  1
  C  C1414  1  0.99489972  0.69022128  0.29674632  1
  C  C1415  1  0.99012454  0.63532236  0.44325742  1
  C  C1416  1  0.99994781  0.50445876  0.49926520  1
  N  N1417  1  0.73110383  0.76880038  0.47035993  1
  C  C1418  1  0.72096404  0.79568094  0.43214112  1
  H  H1419  1  0.68052843  0.84236137  0.46748916  1
  C  C1420  1  0.69115566  0.83054241  0.43378121  1
  H  H1421  1  0.63935434  0.86636028  0.39923981  1
  H  H1422  1  0.59436648  0.85931515  0.32991494  1
  H  H1423  1  0.59524565  0.95348293  0.29339915  1
  C  C1424  1  0.63752896  0.91708378  0.47464237  1
  C  C1425  1  0.60763479  0.89108990  0.45155219  1
  C  C1426  1  0.59162904  0.85223710  0.46720122  1
  H  H1427  1  0.64867675  0.94752265  0.46015739  1
  H  H1428  1  0.56566875  0.83758089  0.44840251  1
  C  C1429  1  0.61875201  0.86411348  0.30292670  1
  O  O1430  1  0.56115384  0.89030016  0.38759036  1
  C  C1431  1  0.59304638  0.90822336  0.40647996  1
  O  O1432  1  0.61619864  0.93755937  0.38812929  1
  O  O1433  1  0.69230865  0.99343606  0.39535130  1
  C  C1434  1  0.66870849  0.84593541  0.39467282  1
  Cu  Cu1435  1  0.68278439  0.93318740  0.38394521  1
  C  C1436  1  0.66432117  0.85199148  0.30751626  1
  C  C1437  1  0.68091620  0.83026613  0.34979955  1
  O  O1438  1  0.74243441  0.92224733  0.38405623  1
  C  C1439  1  0.71356804  0.79719969  0.34753299  1
  C  C1440  1  0.69446537  0.85585541  0.26889299  1
  H  H1441  1  0.57064476  0.89587235  0.25547063  1
  C  C1442  1  0.60486885  0.88585335  0.26295925  1
  C  C1443  1  0.58874569  0.97595965  0.26512054  1
  C  C1444  1  0.73456507  0.78122839  0.38699371  1
  O  O1445  1  0.74698126  0.89975963  0.45426119  1
  H  H1446  1  0.72677236  0.83840628  0.26841845  1
  H  H1447  1  0.72734734  0.78678311  0.31286564  1
  H  H1448  1  0.62207011  0.78874162  0.25639696  1
  C  C1449  1  0.98660984  0.83246258  0.25568401  1
  C  C1450  1  0.94849213  0.85700721  0.26477471  1
  C  C1451  1  0.76032594  0.89783791  0.41523960  1
  H  H1452  1  0.77597828  0.88079194  0.32839908  1
  C  C1453  1  0.93078092  0.75084069  0.48880262  1
  H  H1454  1  0.88772371  0.85724867  0.30419115  1
  C  C1455  1  0.91728569  0.84061336  0.29441329  1
  C  C1456  1  0.82423609  0.82895163  0.33309209  1
  C  C1457  1  0.79171248  0.86538406  0.39917141  1
  H  H1458  1  0.81565462  0.84971802  0.46908965  1
  C  C1459  1  0.88934628  0.77224836  0.48166226  1
  C  C1460  1  0.96887332  0.78117853  0.31107898  1
  H  H1461  1  0.97917734  0.75279978  0.33012825  1
  C  C1462  1  0.95766702  0.75600546  0.40982134  1
  C  C1463  1  0.85719622  0.81190432  0.36575481  1
  C  C1464  1  0.92718289  0.80257694  0.31971833  1
  C  C1465  1  0.91578866  0.77686276  0.39887672  1
  C  C1466  1  0.79620640  0.86015328  0.35000962  1
  C  C1467  1  0.81804224  0.84419664  0.43145009  1
  C  C1468  1  0.84922988  0.81528507  0.41477962  1
  H  H1469  1  0.82573217  0.81885201  0.29662132  1
  C  C1470  1  0.88354042  0.78730739  0.43576235  1
  H  H1471  1  0.76258593  0.75780774  0.38301298  1
  N  N1472  1  0.89997165  0.79454239  0.35876392  1
  C  C1473  1  0.58626750  0.57668482  0.61116206  1
  C  C1474  1  0.61843453  0.59482513  0.64413640  1
  C  C1475  1  0.66194955  0.60088996  0.62771159  1
  H  H1476  1  0.67682375  0.59473663  0.59534545  1
  C  C1477  1  0.69151327  0.61525059  0.66295079  1
  C  C1478  1  0.60497714  0.59578598  0.69128806  1
  C  C1479  1  0.67625993  0.62124028  0.71077973  1
  O  O1480  1  0.60091849  0.56912458  0.57068292  1
  H  H1481  1  0.57155411  0.58536594  0.69846183  1
  C  C1482  1  0.63232540  0.60841453  0.72698038  1
  H  H1483  1  0.71523417  0.53472204  0.67223371  1
  Cu  Cu1484  1  0.69947873  0.52548120  0.53517961  1
  O  O1485  1  0.54586902  0.56952866  0.62067247  1
  Cu  Cu1486  1  0.57022436  0.53922027  0.52301997  1
  N  N1487  1  0.71165596  0.63939757  0.73503738  1
  H  H1488  1  0.71217361  0.73852616  0.62453426  1
  O  O1489  1  0.73041538  0.57320965  0.52658927  1
  O  O1490  1  0.73010468  0.51621559  0.59258432  1
  Cu  Cu1491  1  0.50129540  0.54422976  0.57405098  1
  C  C1492  1  0.74034345  0.62568171  0.66318822  1
  C  C1493  1  0.74535816  0.66375409  0.51515586  1
  C  C1494  1  0.74753042  0.74590284  0.70430489  1
  C  C1495  1  0.74404186  0.70584969  0.50820252  1
  O  O1496  1  0.58900525  0.50224837  0.74378799  1
  H  H1497  1  0.75558368  0.65006856  0.54889123  1
  C  C1498  1  0.75795525  0.74130379  0.53770855  1
  H  H1499  1  0.75385229  0.74307000  0.66600743  1
  C  C1500  1  0.75157906  0.64162840  0.70923387  1
  C  C1501  1  0.98019280  0.61125194  0.52433926  1
  C  C1502  1  0.75171982  0.53546408  0.68068355  1
  H  H1503  1  0.76413704  0.61714419  0.59078606  1
  H  H1504  1  0.96438055  0.51557653  0.61135288  1
  O  O1505  1  0.98866216  0.58604914  0.64882671  1
  C  C1506  1  0.76413353  0.54060309  0.72709120  1
  C  C1507  1  0.77099553  0.51788299  0.60065926  1
  C  C1508  1  0.77189554  0.62805512  0.62653417  1
  H  H1509  1  0.85505437  0.50857105  0.63567937  1
  C  C1510  1  0.79627678  0.65240448  0.71908157  1
  C  C1511  1  0.78475264  0.52394401  0.64804676  1
  C  C1512  1  0.96572979  0.69473598  0.67714972  1
  O  O1513  1  0.94538860  0.66020933  0.67923391  1
  C  C1514  1  0.84595486  0.52874951  0.70377302  1
  Cu  Cu1515  1  0.81997769  0.57185513  0.55854572  1
  C  C1516  1  0.81477948  0.64408751  0.64035125  1
  C  C1517  1  0.84899441  0.64109656  0.60366184  1
  O  O1518  1  0.88857067  0.65222995  0.61251091  1
  C  C1519  1  0.82903051  0.65554072  0.68481617  1
  H  H1520  1  0.86524487  0.65963947  0.69176650  1
  O  O1521  1  0.83811768  0.62700242  0.56467657  1
  H  H1522  1  0.79047065  0.71539770  0.59820974  1
  Cu  Cu1523  1  0.93662548  0.61511155  0.63152940  1
  O  O1524  1  0.93050012  0.57208934  0.58505011  1
  O  O1525  1  0.80214312  0.51938266  0.57050626  1
  C  C1526  1  0.83054642  0.51941386  0.65993895  1
  H  H1527  1  0.87948034  0.52203904  0.71850912  1
  C  C1528  1  0.91527721  0.57285234  0.54514249  1
  H  H1529  1  0.87958815  0.58507448  0.72558440  1
  O  O1530  1  0.87731535  0.55674872  0.53439735  1
  C  C1531  1  0.81237736  0.54326399  0.73596635  1
  O  O1532  1  0.97560788  0.72010852  0.54511726  1
  O  O1533  1  0.94642975  0.72790674  0.66581962  1
  C  C1534  1  0.78085427  0.74345292  0.58000633  1
  Cu  Cu1535  1  0.89963808  0.72995507  0.62393197  1
  C  C1536  1  0.94059416  0.73790348  0.53681433  1
  H  H1537  1  0.94481649  0.62429077  0.74623109  1
  H  H1538  1  0.81501945  0.73159616  0.72583972  1
  C  C1539  1  0.77924341  0.74045451  0.73788354  1
  C  C1540  1  0.93814168  0.59611813  0.50968710  1
  C  C1541  1  0.99269007  0.55992498  0.68411280  1
  C  C1542  1  0.98939520  0.51307818  0.68160657  1
  H  H1543  1  0.99381633  0.60691729  0.56059301  1
  C  C1544  1  0.68952191  0.76482104  0.63344115  1
  C  C1545  1  0.70466672  0.76351061  0.71853674  1
  C  C1546  1  0.52400056  0.86801582  0.69168875  1
  C  C1547  1  0.52687940  0.98495380  0.73724507  1
  H  H1548  1  0.68781575  0.78267415  0.56364063  1
  H  H1549  1  0.70245243  0.98390672  0.53226023  1
  C  C1550  1  0.67828337  0.77949193  0.67920469  1
  O  O1551  1  0.52038428  0.89706246  0.66417149  1
  H  H1552  1  0.66486155  0.97811303  0.73396412  1
  C  C1553  1  0.64012955  0.80493185  0.68728739  1
  H  H1554  1  0.59255350  0.92316866  0.70011021  1
  C  C1555  1  0.55967608  0.86588914  0.72727442  1
  C  C1556  1  0.59143861  0.89757685  0.72650000  1
  H  H1557  1  0.59554898  0.85003300  0.65455506  1
  C  C1558  1  0.62196874  0.82701815  0.65008889  1
  C  C1559  1  0.67331011  0.78900032  0.59762517  1
  C  C1560  1  0.66942230  0.89674862  0.59684191  1
  C  C1561  1  0.64222276  0.82323862  0.60593580  1
  N  N1562  1  0.64463482  0.86174835  0.58356685  1
  C  C1563  1  0.63021823  0.86556911  0.53753504  1
  C  C1564  1  0.70096823  0.96084850  0.55871080  1
  C  C1565  1  0.67618993  0.92360130  0.55678132  1
  H  H1566  1  0.62643878  0.80948733  0.72211680  1
  C  C1567  1  0.69623927  0.90453417  0.63767886  1
  C  C1568  1  0.71960831  0.97044949  0.60203298  1
  H  H1569  1  0.69925871  0.88111759  0.66627455  1
  C  C1570  1  0.71979760  0.94117427  0.63969094  1
  O  O1571  1  0.53808923  0.97244776  0.69572734  1
  H  H1572  1  0.58949335  0.80787948  0.52520506  1
  C  C1573  1  0.64911337  0.90507431  0.51943957  1
  H  H1574  1  0.74174950  0.94722837  0.66700248  1
  H  H1575  1  0.74204654  0.84782603  0.51706608  1
  C  C1576  1  0.60555218  0.83627789  0.51014293  1
  C  C1577  1  0.74561747  0.78019159  0.51401787  1
  O  O1578  1  0.84739593  0.75338979  0.64859342  1
  O  O1579  1  0.91070891  0.75034611  0.56732137  1
  C  C1580  1  0.82765215  0.78603020  0.63268501  1
  C  C1581  1  0.75515510  0.82034444  0.53478684  1
  O  O1582  1  0.83518380  0.82047712  0.64853613  1
  H  H1583  1  0.82697256  0.79333451  0.72965622  1
  H  H1584  1  0.78666572  0.85124748  0.59187887  1
  H  H1585  1  0.86343378  0.77661046  0.50903552  1
  C  C1586  1  0.79429675  0.78287330  0.59492244  1
  C  C1587  1  0.77831343  0.82123068  0.57567134  1
  H  H1588  1  0.88656345  0.84898257  0.72461411  1
  C  C1589  1  0.64302093  0.67836893  0.82750286  1
  C  C1590  1  0.64444901  0.65942099  0.90975914  1
  C  C1591  1  0.66827011  0.66167395  0.86408740  1
  C  C1592  1  0.66317654  0.63668816  0.94781539  1
  C  C1593  1  0.71452526  0.64826917  0.86271669  1
  C  C1594  1  0.59722311  0.67118827  0.90905096  1
  H  H1595  1  0.58326353  0.68744003  0.87990963  1
  C  C1596  1  0.56943702  0.65515290  0.94384471  1
  H  H1597  1  0.69859790  0.62917979  0.94840786  1
  C  C1598  1  0.63430513  0.62174644  0.98182125  1
  C  C1599  1  0.63892802  0.55473440  0.84740821  1
  O  O1600  1  0.63092149  0.55531894  0.88696027  1
  C  C1601  1  0.68580306  0.56023413  0.82830457  1
  O  O1602  1  0.60857296  0.54681111  0.81520324  1
  H  H1603  1  0.70148015  0.57157167  0.89734530  1
  H  H1604  1  0.64336531  0.53011645  0.95828790  1
  H  H1605  1  0.61004507  0.69510723  0.83020937  1
  H  H1606  1  0.53003193  0.58610375  0.90481679  1
  H  H1607  1  0.53375808  0.66022978  0.94642449  1
  C  C1608  1  0.69486312  0.55332356  0.78188410  1
  C  C1609  1  0.66125969  0.67547179  0.78312298  1
  C  C1610  1  0.70361698  0.65392706  0.77987780  1
  C  C1611  1  0.52732178  0.57507870  0.98052805  1
  C  C1612  1  0.73259833  0.64485548  0.81891212  1
  C  C1613  1  0.58678079  0.62791707  0.97882158  1
  C  C1614  1  0.51845437  0.56663528  0.93233920  1
  C  C1615  1  0.71721572  0.56563811  0.86301565  1
  H  H1616  1  0.73189561  0.63951178  0.89420267  1
  H  H1617  1  0.62382774  0.60625565  0.76493403  1
  H  H1618  1  0.66872846  0.54909441  0.75672827  1
  H  H1619  1  0.74335993  0.70939324  0.87154323  1
  H  H1620  1  0.64467430  0.68568840  0.75029903  1
  H  H1621  1  0.63199340  0.72512281  0.96567865  1
  C  C1622  1  0.63429238  0.52058590  0.99282221  1
  H  H1623  1  0.73037831  0.51223891  0.96753574  1
  C  C1624  1  0.66037749  0.73104037  0.99124360  1
  C  C1625  1  0.74037864  0.54785490  0.77203612  1
  C  C1626  1  0.74302407  0.54487414  0.97075428  1
  C  C1627  1  0.97055973  0.67605229  0.84294854  1
  C  C1628  1  0.95975555  0.50816926  0.83146305  1
  H  H1629  1  0.75881327  0.70012442  0.96005840  1
  C  C1630  1  0.77268562  0.72474068  0.89068021  1
  H  H1631  1  0.76750300  0.63488831  0.81787626  1
  C  C1632  1  0.76283685  0.56614380  0.85135774  1
  C  C1633  1  0.77643805  0.55409972  0.80675220  1
  H  H1634  1  0.78607819  0.57928865  0.87717623  1
  H  H1635  1  0.94916611  0.52748721  0.79910653  1
  C  C1636  1  0.85135228  0.60662180  0.94926347  1
  C  C1637  1  0.91196318  0.58563782  0.85812770  1
  H  H1638  1  0.92067235  0.59027458  0.89417449  1
  C  C1639  1  0.87370841  0.56283620  0.84546596  1
  C  C1640  1  0.93651312  0.60714078  0.82264605  1
  H  H1641  1  0.85504697  0.54808011  0.87477099  1
  C  C1642  1  0.88279681  0.57440919  0.96356186  1
  C  C1643  1  0.80208569  0.59613923  0.95806533  1
  H  H1644  1  0.93615786  0.69015456  0.84639076  1
  C  C1645  1  0.86729460  0.64723836  0.93467918  1
  C  C1646  1  0.91168059  0.65788295  0.94335308  1
  C  C1647  1  0.94041345  0.62681994  0.96537787  1
  C  C1648  1  0.92735566  0.58487663  0.96998133  1
  C  C1649  1  0.86074020  0.56405830  0.79786222  1
  N  N1650  1  0.81792561  0.55417861  0.78194944  1
  C  C1651  1  0.78266366  0.55675320  0.94800165  1
  H  H1652  1  0.84601217  0.67181251  0.91804772  1
  H  H1653  1  0.86906107  0.54388733  0.96977923  1
  H  H1654  1  0.92444479  0.68955983  0.93691404  1
  C  C1655  1  0.78357282  0.71648732  0.93674596  1
  H  H1656  1  0.95097795  0.55905061  0.97929558  1
  C  C1657  1  0.92535071  0.60755087  0.77383541  1
  H  H1658  1  0.80133888  0.53542342  0.92505379  1
  C  C1659  1  0.82473166  0.73416168  0.95096635  1
  C  C1660  1  0.88877365  0.58429076  0.76324141  1
  C  C1661  1  0.99384274  0.52340249  0.86004715  1
  C  C1662  1  0.77966586  0.62735370  0.98631659  1
  N  N1663  1  0.97747178  0.63826483  0.99252718  1
  H  H1664  1  0.80821686  0.65910048  0.75507418  1
  C  C1665  1  0.97783357  0.63451742  0.82769997  1
  C  C1666  1  0.80378433  0.74321640  0.85973928  1
  C  C1667  1  0.76887061  0.74256524  0.78466421  1
  H  H1668  1  0.95640492  0.72475353  0.98660596  1
  H  H1669  1  0.79402175  0.65876266  0.99096567  1
  O  O1670  1  0.95592481  0.74689562  0.91332259  1
  N  N1671  1  0.80629352  0.74901341  0.81252782  1
  C  C1672  1  0.99053940  0.73713167  0.99583036  1
  C  C1673  1  0.84856221  0.73246296  0.99935632  1
  C  C1674  1  0.72342219  0.75373016  0.80049871  1
  H  H1675  1  0.71582269  0.75639853  0.83766439  1
  C  C1676  1  0.69250764  0.76579086  0.76719180  1
  H  H1677  1  0.65862103  0.77677081  0.77921599  1
  C  C1678  1  0.50760068  0.97728349  0.93143836  1
  C  C1679  1  0.69561357  0.75931208  0.97918985  1
  H  H1680  1  0.61397195  0.78548768  0.95362812  1
  C  C1681  1  0.52686575  0.90639780  0.96146499  1
  C  C1682  1  0.55351550  0.98036641  0.92115817  1
  C  C1683  1  0.63956057  0.79756947  0.93102119  1
  H  H1684  1  0.59585883  0.83176972  0.88560882  1
  C  C1685  1  0.58492642  0.94657194  0.92450348  1
  C  C1686  1  0.66737630  0.84048420  0.86639011  1
  C  C1687  1  0.68603411  0.78653547  0.93926510  1
  C  C1688  1  0.63072079  0.82441892  0.89374615  1
  N  N1689  1  0.65929464  0.86464504  0.82641763  1
  C  C1690  1  0.68556202  0.89782816  0.81588738  1
  H  H1691  1  0.58921882  0.80370663  0.81799402  1
  C  C1692  1  0.62402449  0.85995695  0.79370403  1
  C  C1693  1  0.72079241  0.79904111  0.90842772  1
  C  C1694  1  0.71225843  0.82583332  0.87138477  1
  C  C1695  1  0.59025029  0.82809370  0.79225680  1
  C  C1696  1  0.72351932  0.91612982  0.83961988  1
  C  C1697  1  0.57202608  0.90952721  0.94555940  1
  H  H1698  1  0.59321047  0.88042793  0.94556617  1
  H  H1699  1  0.61889362  0.94793165  0.90978452  1
  C  C1700  1  0.66421301  0.91983192  0.77666989  1
  C  C1701  1  0.71765894  0.97383317  0.78513302  1
  H  H1702  1  0.74000616  0.83542650  0.84874861  1
  C  C1703  1  0.73665641  0.95473360  0.82421801  1
  H  H1704  1  0.73501692  0.90206417  0.86969163  1
  N  N1705  1  0.51037461  0.88309385  0.99747731  1
  C  C1706  1  0.68059524  0.95851153  0.76047807  1
  H  H1707  1  0.53328915  0.80625685  0.76019148  1
  C  C1708  1  0.55709174  0.83086291  0.75853319  1
  C  C1709  1  0.62405956  0.89500195  0.76204157  1
  Cu  Cu1710  1  0.99611653  0.82751906  0.85472592  1
  H  H1711  1  0.91888751  0.82651580  0.87060066  1
  C  C1712  1  0.88183965  0.82974108  0.75667506  1
  C  C1713  1  0.94253148  0.86961171  0.79398262  1
  H  H1714  1  0.88764755  0.76695285  0.94272030  1
  H  H1715  1  0.75507695  0.78862540  0.91260303  1
  C  C1716  1  0.84287187  0.76488704  0.87987496  1
  C  C1717  1  0.86678192  0.78709591  0.84250978  1
  C  C1718  1  0.85588218  0.75757495  0.92651959  1
  C  C1719  1  0.99284883  0.76137422  0.91808443  1
  C  C1720  1  0.84281154  0.77552940  0.79991458  1
  O  O1721  1  0.97004205  0.87442157  0.82536961  1
  C  C1722  1  0.90666091  0.83783746  0.79632411  1
  C  C1723  1  0.84843485  0.79847980  0.75893990  1
  Cu  Cu1724  1  0.95350325  0.95172300  0.76305373  1
  O  O1725  1  0.94352929  0.89333581  0.75942418  1
  H  H1726  1  0.76368848  0.97097042  0.84280580  1
  C  C1727  1  0.89963621  0.81779118  0.83951159  1
