# generated using pymatgen
data_CuH10C20NO4
_symmetry_space_group_name_H-M   'P 1'
_cell_length_a   28.84202275
_cell_length_b   29.28496722
_cell_length_c   25.59914089
_cell_angle_alpha   90.00000000
_cell_angle_beta   90.00000000
_cell_angle_gamma   90.00000000
_symmetry_Int_Tables_number   1
_chemical_formula_structural   CuH10C20NO4
_chemical_formula_sum   'Cu48 H480 C960 N48 O192'
_cell_volume   21621.99925498
_cell_formula_units_Z   48
loop_
 _symmetry_equiv_pos_site_id
 _symmetry_equiv_pos_as_xyz
  1  'x, y, z'
loop_
 _atom_site_type_symbol
 _atom_site_label
 _atom_site_symmetry_multiplicity
 _atom_site_fract_x
 _atom_site_fract_y
 _atom_site_fract_z
 _atom_site_occupancy
  O  O0  1  0.08992030  0.06950818  0.21047576  1
  C  C1  1  0.08704823  0.14899348  0.08501930  1
  O  O2  1  0.09946750  0.10934209  0.07252267  1
  Cu  Cu3  1  0.07691178  0.13087188  0.19221648  1
  O  O4  1  0.06451497  0.15443020  0.12717560  1
  C  C5  1  0.08948901  0.18664840  0.04719498  1
  Cu  Cu6  1  0.05552499  0.06495800  0.05622121  1
  Cu  Cu7  1  0.09814828  0.21855104  0.19710176  1
  C  C8  1  0.06906206  0.03364283  0.19652952  1
  O  O9  1  0.05336323  0.02928133  0.15014955  1
  H  H10  1  0.18083245  0.04149839  0.03564473  1
  C  C11  1  0.07086132  0.22968568  0.06355035  1
  H  H12  1  0.05506654  0.23327625  0.10264493  1
  H  H13  1  0.00038719  0.12224830  0.23662944  1
  H  H14  1  0.15599933  0.21544841  0.07630811  1
  C  C15  1  0.21854393  0.22005478  0.02893827  1
  C  C16  1  0.19287751  0.22721779  0.07397356  1
  O  O17  1  0.06140841  0.17932991  0.23563206  1
  O  O18  1  0.01444573  0.10741613  0.02238902  1
  O  O19  1  0.01128276  0.02037294  0.03998138  1
  C  C20  1  0.21232555  0.24261446  0.12158543  1
  H  H21  1  0.25278169  0.01182317  0.06953292  1
  C  C22  1  0.26453694  0.03966380  0.09531958  1
  H  H23  1  0.28039551  0.00282833  0.16448104  1
  C  C24  1  0.26561025  0.08422687  0.06831275  1
  C  C25  1  0.28033390  0.03571374  0.14600823  1
  H  H26  1  0.27561836  0.16039901  0.07949151  1
  C  C27  1  0.27782491  0.12550474  0.09477522  1
  C  C28  1  0.28982565  0.07789348  0.17485558  1
  C  C29  1  0.28745380  0.12086371  0.14757562  1
  H  H30  1  0.28693719  0.15469876  0.16883814  1
  C  C31  1  0.30579477  0.08076448  0.22830041  1
  H  H32  1  0.34945289  0.14235691  0.04349566  1
  H  H33  1  0.30485163  0.15319983  0.22832064  1
  C  C34  1  0.26557576  0.23637433  0.03067927  1
  N  N35  1  0.26338327  0.09108480  0.01275162  1
  C  C36  1  0.28579012  0.24857194  0.08132069  1
  C  C37  1  0.33860368  0.13953239  0.00360178  1
  O  O38  1  0.13652833  0.25107781  0.16019367  1
  C  C39  1  0.17951696  0.25531455  0.16286547  1
  O  O40  1  0.05851723  0.26814875  0.19819084  1
  C  C41  1  0.07009887  0.26769422  0.03161934  1
  C  C42  1  0.02766174  0.28115557  0.16323619  1
  O  O43  1  0.19865665  0.27107448  0.20479325  1
  H  H44  1  0.05229017  0.30156646  0.03655228  1
  O  O45  1  0.17509762  0.37667768  0.18596257  1
  O  O46  1  0.03666761  0.30576678  0.12649678  1
  H  H47  1  0.13000695  0.41897728  0.02352154  1
  C  C48  1  0.15367707  0.41116886  0.20890203  1
  O  O49  1  0.16819734  0.44939429  0.20854262  1
  H  H50  1  0.10871665  0.33079360  0.21005520  1
  Cu  Cu51  1  0.21053233  0.33342627  0.21914929  1
  H  H52  1  0.12856602  0.33731048  0.01496560  1
  C  C53  1  0.10873526  0.40256390  0.23575311  1
  C  C54  1  0.08869562  0.35746567  0.23139797  1
  H  H55  1  0.44258072  0.32001960  0.00608031  1
  C  C56  1  0.42651316  0.33933658  0.11474583  1
  C  C57  1  0.36453187  0.29087086  0.10096629  1
  O  O58  1  0.46324495  0.36432005  0.10106077  1
  C  C59  1  0.33925963  0.26278232  0.01280381  1
  O  O60  1  0.32696050  0.48019463  0.05738423  1
  C  C61  1  0.40932445  0.30682585  0.02026832  1
  O  O62  1  0.41338977  0.34049178  0.15886315  1
  H  H63  1  0.27404198  0.26095500  0.16803682  1
  C  C64  1  0.33287134  0.26665963  0.07033190  1
  C  C65  1  0.25980088  0.25272766  0.12848362  1
  Cu  Cu66  1  0.38312411  0.46858067  0.02747974  1
  H  H67  1  0.36140330  0.29515762  0.14364024  1
  C  C68  1  0.40066385  0.31218267  0.07402627  1
  C  C69  1  0.04304224  0.12846491  0.36518348  1
  H  H70  1  0.06051434  0.15430524  0.38860731  1
  C  C71  1  0.03293644  0.14006217  0.31086359  1
  C  C72  1  0.06167598  0.17815369  0.28982114  1
  C  C73  1  0.02877227  0.08780609  0.38665431  1
  H  H74  1  0.17727649  0.03990828  0.30659104  1
  H  H75  1  0.15282214  0.10587081  0.36382991  1
  C  C76  1  0.16254388  0.03519019  0.34564782  1
  C  C77  1  0.15010159  0.07132125  0.37686935  1
  C  C78  1  0.13165353  0.06384738  0.42768045  1
  O  O79  1  0.08384237  0.20463733  0.31344960  1
  H  H80  1  0.17057281  0.15346512  0.41380973  1
  C  C81  1  0.13715807  0.16711900  0.42568855  1
  H  H82  1  0.09382382  0.03221900  0.29820389  1
  H  H83  1  0.03809392  0.08020868  0.42779330  1
  N  N84  1  0.11518368  0.09364823  0.46674215  1
  C  C85  1  0.00516169  0.11535074  0.27855827  1
  C  C86  1  0.10843997  0.14075965  0.45963340  1
  C  C87  1  0.12241465  0.21162435  0.41423545  1
  C  C88  1  0.12683848  0.01730149  0.44854469  1
  C  C89  1  0.07496504  0.00178160  0.28736281  1
  H  H90  1  0.03555360  0.02323701  0.44695901  1
  H  H91  1  0.24638995  0.11559539  0.47939064  1
  C  C92  1  0.08948007  0.23400683  0.44549878  1
  C  C93  1  0.00402711  0.00389184  0.45561266  1
  H  H94  1  0.14316295  0.23091796  0.38369190  1
  C  C95  1  0.00108095  0.05862513  0.35226576  1
  C  C96  1  0.07082242  0.16222139  0.48746703  1
  C  C97  1  0.06503172  0.20876585  0.48562380  1
  C  C98  1  0.31170635  0.00593233  0.47797644  1
  H  H99  1  0.27877078  0.08642486  0.39611919  1
  C  C100  1  0.28368934  0.11864132  0.47300622  1
  H  H101  1  0.34557166  0.16830568  0.31111679  1
  C  C102  1  0.30119523  0.09989234  0.42755377  1
  C  C103  1  0.35443889  0.09343425  0.32692439  1
  C  C104  1  0.34994817  0.10114805  0.42231398  1
  C  C105  1  0.47411912  0.12902070  0.45558438  1
  C  C106  1  0.42277224  0.10284312  0.38510120  1
  C  C107  1  0.46033290  0.08826919  0.35268526  1
  N  N108  1  0.37533788  0.09892025  0.37578948  1
  C  C109  1  0.42897367  0.11878929  0.43934487  1
  C  C110  1  0.38179463  0.12045112  0.46284765  1
  H  H111  1  0.45234317  0.07763074  0.31282256  1
  C  C112  1  0.33921577  0.04863107  0.31109317  1
  C  C113  1  0.33964065  0.13292495  0.29783934  1
  H  H114  1  0.35111680  0.01871565  0.33435139  1
  H  H115  1  0.42271754  0.02853188  0.48569102  1
  C  C116  1  0.42717691  0.00471393  0.45401754  1
  H  H117  1  0.48055524  0.14447199  0.49397035  1
  C  C118  1  0.31476229  0.04255411  0.26393749  1
  H  H119  1  0.30229610  0.00607249  0.25519138  1
  C  C120  1  0.31623419  0.12513754  0.25092599  1
  C  C121  1  0.01520267  0.45700156  0.32244454  1
  C  C122  1  0.01778330  0.45196989  0.48496482  1
  H  H123  1  0.00814171  0.33191885  0.40969245  1
  C  C124  1  0.02854200  0.38387030  0.28975985  1
  C  C125  1  0.17096388  0.47334576  0.33090997  1
  C  C126  1  0.11110090  0.45451807  0.38946475  1
  C  C127  1  0.05935456  0.45938321  0.45449319  1
  O  O128  1  0.19083543  0.33672111  0.33997423  1
  H  H129  1  0.14239009  0.40521473  0.33451514  1
  C  C130  1  0.14196392  0.43952250  0.34964621  1
  N  N131  1  0.08239065  0.42898602  0.42258745  1
  C  C132  1  0.08177723  0.38072095  0.42425397  1
  C  C133  1  0.08321112  0.28402413  0.43447923  1
  H  H134  1  0.19594122  0.41021574  0.40552021  1
  C  C135  1  0.08541488  0.30363551  0.38343132  1
  C  C136  1  0.08538342  0.35118883  0.38065009  1
  H  H137  1  0.08018611  0.36336715  0.34155373  1
  C  C138  1  0.04832704  0.43082140  0.28866006  1
  H  H139  1  0.08738629  0.28188394  0.34903047  1
  H  H140  1  0.19740982  0.46647946  0.29951736  1
  C  C141  1  0.22497016  0.35577111  0.32395924  1
  C  C142  1  0.22841385  0.41962045  0.39110509  1
  C  C143  1  0.07275645  0.36115020  0.47446648  1
  C  C144  1  0.08889047  0.43888106  0.26158065  1
  C  C145  1  0.04846686  0.34753132  0.25880767  1
  H  H146  1  0.10751876  0.47310899  0.26263378  1
  H  H147  1  0.03316909  0.31243169  0.25966529  1
  H  H148  1  0.16210739  0.48363074  0.46771721  1
  O  O149  1  0.24236268  0.34102213  0.27873036  1
  H  H150  1  0.00388627  0.41674851  0.48936006  1
  C  C151  1  0.23837367  0.49359983  0.45049946  1
  C  C152  1  0.24770441  0.39591554  0.34734667  1
  C  C153  1  0.24867846  0.46010507  0.40870768  1
  C  C154  1  0.07059044  0.31388012  0.47695659  1
  H  H155  1  0.47356818  0.37311059  0.34709843  1
  H  H156  1  0.44892111  0.42936756  0.42944875  1
  H  H157  1  0.47609296  0.44482457  0.29217048  1
  C  C158  1  0.44675170  0.49363558  0.47144584  1
  C  C159  1  0.43063222  0.46041449  0.43267686  1
  C  C160  1  0.44519359  0.31231083  0.48851053  1
  C  C161  1  0.31234434  0.45130319  0.33858535  1
  C  C162  1  0.29545924  0.47187576  0.38689581  1
  H  H163  1  0.37063312  0.44256254  0.38748955  1
  H  H164  1  0.45955206  0.37819788  0.45505169  1
  H  H165  1  0.30540891  0.39377329  0.29011309  1
  C  C166  1  0.38609646  0.46824370  0.41256284  1
  C  C167  1  0.47227764  0.34252728  0.45953201  1
  C  C168  1  0.28915262  0.41181340  0.32390388  1
  H  H169  1  0.34263264  0.46400667  0.31872641  1
  C  C170  1  0.07838433  0.04915599  0.59962816  1
  H  H171  1  0.06675051  0.05841889  0.64086747  1
  C  C172  1  0.08397469  0.08317781  0.56047028  1
  H  H173  1  0.08111913  0.11867957  0.57038470  1
  O  O174  1  0.15995284  0.05903518  0.70413384  1
  C  C175  1  0.19935762  0.05212013  0.68546754  1
  O  O176  1  0.22373232  0.08375050  0.66681437  1
  O  O177  1  0.14966731  0.18206977  0.73454581  1
  H  H178  1  0.04814504  0.14189172  0.51213471  1
  H  H179  1  0.01967601  0.02943018  0.70137481  1
  Cu  Cu180  1  0.22936285  0.09243744  0.59053411  1
  C  C181  1  0.10208046  0.06898218  0.51159199  1
  H  H182  1  0.02947635  0.24450902  0.61894497  1
  C  C183  1  0.21715993  0.00498853  0.68603828  1
  H  H184  1  0.03819886  0.22492549  0.50909821  1
  C  C185  1  0.10826024  0.01901243  0.50226294  1
  C  C186  1  0.24041691  0.00747391  0.53088546  1
  H  H187  1  0.22121458  0.23784295  0.74487167  1
  C  C188  1  0.08887413  0.00379453  0.58775106  1
  C  C189  1  0.49238002  0.00083801  0.70524600  1
  O  O190  1  0.25257942  0.14987308  0.57075292  1
  C  C191  1  0.48208131  0.03474753  0.74741982  1
  H  H192  1  0.28718671  0.02412858  0.66120271  1
  O  O193  1  0.25676216  0.03992279  0.55959309  1
  Cu  Cu194  1  0.48659753  0.03053314  0.57404581  1
  O  O195  1  0.43699515  0.19573124  0.53469551  1
  O  O196  1  0.32270348  0.16981247  0.59757714  1
  H  H197  1  0.38443394  0.15354831  0.53964377  1
  C  C198  1  0.29504688  0.15350827  0.56233644  1
  Cu  Cu199  1  0.35278534  0.22417608  0.59831411  1
  C  C200  1  0.42716301  0.23531737  0.52686265  1
  C  C201  1  0.31197424  0.13702376  0.51337102  1
  H  H202  1  0.32763150  0.02723091  0.50944566  1
  O  O203  1  0.30102976  0.23556484  0.72382415  1
  C  C204  1  0.36166781  0.13883065  0.50847317  1
  H  H205  1  0.09499308  0.26073250  0.67387987  1
  H  H206  1  0.18077397  0.27597883  0.66986377  1
  H  H207  1  0.04753996  0.47166073  0.61374839  1
  C  C208  1  0.07785004  0.46182550  0.63723766  1
  C  C209  1  0.03727400  0.36163263  0.59077672  1
  C  C210  1  0.04216898  0.28093268  0.61955108  1
  C  C211  1  0.09216681  0.41686490  0.63962903  1
  C  C212  1  0.13216357  0.40609565  0.67203658  1
  C  C213  1  0.09852121  0.33475633  0.65397727  1
  C  C214  1  0.08163915  0.29042330  0.64937342  1
  N  N215  1  0.13254994  0.35827121  0.68086854  1
  C  C216  1  0.07392787  0.37140903  0.62213699  1
  C  C217  1  0.16471008  0.43968420  0.68998049  1
  C  C218  1  0.15038884  0.48539724  0.68796561  1
  C  C219  1  0.02219875  0.31557108  0.58806327  1
  H  H220  1  0.01798894  0.38691766  0.56842554  1
  C  C221  1  0.18279801  0.29221227  0.70950310  1
  C  C222  1  0.16174287  0.33539078  0.71595791  1
  H  H223  1  0.19820078  0.42917946  0.70606891  1
  H  H224  1  0.06302749  0.29810608  0.51255890  1
  H  H225  1  0.06934881  0.38222347  0.51062528  1
  C  C226  1  0.10782055  0.49320314  0.66269234  1
  C  C227  1  0.46054062  0.26774131  0.50062383  1
  C  C228  1  0.41383445  0.49780921  0.70101547  1
  O  O229  1  0.38749951  0.25134392  0.54294552  1
  C  C230  1  0.31166739  0.34122145  0.65267275  1
  H  H231  1  0.41140769  0.32217702  0.50712625  1
  C  C232  1  0.48489471  0.27500480  0.69426012  1
  C  C233  1  0.43892260  0.35779746  0.65901502  1
  C  C234  1  0.34392067  0.49966717  0.64406980  1
  C  C235  1  0.49884324  0.29632933  0.65049312  1
  C  C236  1  0.36880730  0.48119666  0.68788691  1
  C  C237  1  0.42129267  0.33067137  0.69958507  1
  C  C238  1  0.47148853  0.47708208  0.56646745  1
  C  C239  1  0.32456215  0.38625791  0.65527274  1
  H  H240  1  0.30093428  0.32686949  0.61484707  1
  C  C241  1  0.33788394  0.40271647  0.70595177  1
  C  C242  1  0.44355174  0.29155699  0.71976426  1
  H  H243  1  0.32460045  0.41040752  0.62128640  1
  H  H244  1  0.38942177  0.34820014  0.71732843  1
  H  H245  1  0.31404406  0.48155084  0.63074468  1
  C  C246  1  0.30556873  0.26389699  0.68762129  1
  N  N247  1  0.35496122  0.44509578  0.72193311  1
  C  C248  1  0.48278656  0.44102624  0.59801808  1
  O  O249  1  0.30805965  0.25203275  0.63986609  1
  H  H250  1  0.42535924  0.39312719  0.65035802  1
  C  C251  1  0.48104828  0.34240412  0.63734101  1
  H  H252  1  0.47189103  0.43858553  0.63969854  1
  C  C253  1  0.48032277  0.47552396  0.51010272  1
  C  C254  1  0.31237795  0.31345419  0.69865728  1
  H  H255  1  0.43314870  0.48043414  0.73359376  1
  C  C256  1  0.15668493  0.03811858  0.95564817  1
  C  C257  1  0.17114236  0.04695480  0.90300134  1
  C  C258  1  0.21159351  0.07027893  0.88663620  1
  C  C259  1  0.14208268  0.02866679  0.86260687  1
  O  O260  1  0.15568559  0.03169784  0.81661679  1
  H  H261  1  0.14406269  0.15537993  0.88106796  1
  C  C262  1  0.12888375  0.18879047  0.86977133  1
  H  H263  1  0.21607503  0.07699677  0.84412943  1
  C  C264  1  0.13219667  0.20516134  0.81952138  1
  C  C265  1  0.10203881  0.21420762  0.96176559  1
  O  O266  1  0.16511659  0.13166995  0.79707648  1
  C  C267  1  0.10770648  0.21952086  0.90409239  1
  H  H268  1  0.20843862  0.20492353  0.84859236  1
  O  O269  1  0.04959852  0.11130084  0.81555229  1
  O  O270  1  0.03546455  0.09410365  0.94109155  1
  C  C271  1  0.23041256  0.07325826  0.98026750  1
  C  C272  1  0.14992396  0.17176944  0.77962262  1
  C  C273  1  0.24273249  0.08347579  0.92537947  1
  H  H274  1  0.12486638  0.01686852  0.95969740  1
  H  H275  1  0.12009863  0.14430732  0.98666459  1
  H  H276  1  0.02626018  0.15660991  0.87733953  1
  C  C277  1  0.23085983  0.23128344  0.86761643  1
  C  C278  1  0.01759314  0.12025740  0.97535675  1
  C  C279  1  0.18646321  0.05147298  0.99470158  1
  C  C280  1  0.00910471  0.17864626  0.90721735  1
  H  H281  1  0.24570649  0.18621759  0.93161140  1
  H  H282  1  0.01650867  0.19427706  0.78172906  1
  O  O283  1  0.10299685  0.01064670  0.87635224  1
  C  C284  1  0.00473250  0.16595096  0.96063987  1
  Cu  Cu285  1  0.05142021  0.01652256  0.83441356  1
  C  C286  1  0.04435374  0.08524977  0.78079619  1
  Cu  Cu287  1  0.13959381  0.08063394  0.76883075  1
  H  H288  1  0.20168363  0.20850628  0.99253770  1
  C  C289  1  0.10846494  0.17793942  0.99780146  1
  O  O290  1  0.07827262  0.06220195  0.75917595  1
  C  C291  1  0.11691507  0.24885455  0.80182774  1
  C  C292  1  0.25199413  0.22068913  0.91557875  1
  O  O293  1  0.49453364  0.16521222  0.85540456  1
  C  C294  1  0.28635346  0.11073379  0.93180041  1
  H  H295  1  0.30664297  0.13253122  0.85211471  1
  C  C296  1  0.31381448  0.13304758  0.89425518  1
  C  C297  1  0.35221871  0.15730395  0.91237736  1
  C  C298  1  0.37559036  0.18633340  0.87380118  1
  O  O299  1  0.41190921  0.20809636  0.88694168  1
  O  O300  1  0.36413076  0.17802630  0.82733938  1
  H  H301  1  0.43765782  0.11332034  0.86016854  1
  C  C302  1  0.44758423  0.09101455  0.82716956  1
  C  C303  1  0.42150152  0.05229562  0.81627814  1
  Cu  Cu304  1  0.46286671  0.21580306  0.84376542  1
  C  C305  1  0.36499258  0.16179538  0.96599466  1
  H  H306  1  0.38903174  0.04373373  0.83606927  1
  H  H307  1  0.39401691  0.18327490  0.97942172  1
  C  C308  1  0.29749853  0.11572815  0.98685738  1
  C  C309  1  0.44068381  0.02222037  0.77695394  1
  C  C310  1  0.48984148  0.10026206  0.80067433  1
  Cu  Cu311  1  0.33816156  0.21863915  0.77422137  1
  O  O312  1  0.44929582  0.23011813  0.77601818  1
  N  N313  1  0.29753200  0.24836809  0.99182150  1
  C  C314  1  0.08794946  0.25916457  0.97978495  1
  H  H315  1  0.12028065  0.25566786  0.75937365  1
  C  C316  1  0.01996359  0.49644016  0.77170718  1
  C  C317  1  0.09424639  0.26637873  0.89089791  1
  H  H318  1  0.02929329  0.42999118  0.89394755  1
  H  H319  1  0.03053033  0.34306824  0.88468334  1
  H  H320  1  0.06506604  0.43252199  0.83007737  1
  H  H321  1  0.19796638  0.36055614  0.84122229  1
  H  H322  1  0.09141308  0.31587387  0.82450209  1
  C  C323  1  0.09869814  0.27999039  0.83767575  1
  C  C324  1  0.07880404  0.33605658  0.94816379  1
  N  N325  1  0.08611260  0.29021564  0.93722568  1
  C  C326  1  0.21400642  0.29788680  0.79853169  1
  C  C327  1  0.19045946  0.34183059  0.80535108  1
  H  H328  1  0.12546908  0.38140788  0.90112304  1
  C  C329  1  0.16054546  0.39726573  0.89702291  1
  C  C330  1  0.19716852  0.37872427  0.92962677  1
  C  C331  1  0.16347729  0.43987130  0.87375323  1
  C  C332  1  0.04958415  0.36224476  0.91462631  1
  C  C333  1  0.05016754  0.40898917  0.92054331  1
  C  C334  1  0.20938649  0.46201101  0.87832838  1
  C  C335  1  0.07963220  0.43169362  0.95843866  1
  C  C336  1  0.08570231  0.46203181  0.82330490  1
  C  C337  1  0.13155483  0.46620514  0.84045787  1
  C  C338  1  0.09156490  0.48106543  0.96297017  1
  O  O339  1  0.19244179  0.34262670  0.95366787  1
  H  H340  1  0.16637862  0.46551275  0.96699176  1
  C  C341  1  0.10501117  0.35666263  0.99020727  1
  C  C342  1  0.14008538  0.49096185  0.97383927  1
  C  C343  1  0.06928600  0.49865099  0.79233575  1
  C  C344  1  0.10653827  0.40409729  0.99324739  1
  H  H345  1  0.15693887  0.39739731  0.76068912  1
  C  C346  1  0.16851197  0.36118027  0.76314273  1
  C  C347  1  0.20710276  0.27250633  0.75023835  1
  C  C348  1  0.23773231  0.27561343  0.84331072  1
  C  C349  1  0.24048730  0.40409038  0.92982820  1
  C  C350  1  0.24909176  0.44486925  0.90521494  1
  C  C351  1  0.33190245  0.37564907  0.75343903  1
  C  C352  1  0.37620568  0.42578347  0.88278060  1
  C  C353  1  0.28219917  0.25424996  0.93974694  1
  O  O354  1  0.40482592  0.43849206  0.97287490  1
  O  O355  1  0.38401554  0.26746720  0.77946536  1
  H  H356  1  0.40641770  0.49484780  0.88727879  1
  C  C357  1  0.29350681  0.29612266  0.91269682  1
  H  H358  1  0.27377011  0.34158027  0.84972929  1
  H  H359  1  0.31572549  0.32156131  0.92960197  1
  C  C360  1  0.27024883  0.30698674  0.86727829  1
  C  C361  1  0.37893054  0.28293343  0.98965698  1
  C  C362  1  0.35067840  0.39456676  0.85203416  1
  H  H363  1  0.33937739  0.36118760  0.86904822  1
  H  H364  1  0.38472746  0.27576850  0.94826158  1
  H  H365  1  0.28656073  0.47379491  0.80979408  1
  C  C366  1  0.39439401  0.46715050  0.86121091  1
  O  O367  1  0.35879261  0.38174526  0.95329719  1
  H  H368  1  0.28174994  0.46321169  0.90679293  1
  C  C369  1  0.38703473  0.47915188  0.80869206  1
  C  C370  1  0.35089951  0.40292190  0.79893931  1
  C  C371  1  0.36729185  0.44516112  0.77463838  1
  C  C372  1  0.38246887  0.41329718  0.93861935  1
  H  H373  1  0.31457927  0.30554536  0.78419346  1
  H  H374  1  0.27013183  0.38613210  0.94951852  1
  C  C375  1  0.31762803  0.33008248  0.75026029  1
  C  C376  1  0.42509494  0.26349914  0.76173265  1
  C  C377  1  0.15842116  0.59263290  0.08335905  1
  N  N378  1  0.12555260  0.59564619  0.04447474  1
  C  C379  1  0.15340291  0.63254813  0.11814123  1
  C  C380  1  0.09875437  0.63553160  0.04874758  1
  C  C381  1  0.11600950  0.66027683  0.09534214  1
  C  C382  1  0.18115867  0.63592147  0.16192487  1
  C  C383  1  0.09368897  0.69978477  0.11612459  1
  C  C384  1  0.19333140  0.55819446  0.09548936  1
  C  C385  1  0.22107810  0.56473099  0.13777619  1
  C  C386  1  0.21720661  0.60385616  0.17073629  1
  C  C387  1  0.22969496  0.70448768  0.09218299  1
  C  C388  1  0.05013394  0.70359268  0.03337550  1
  H  H389  1  0.17631377  0.66429972  0.19005975  1
  H  H390  1  0.10030699  0.71634771  0.15227554  1
  C  C391  1  0.06234222  0.72272596  0.08267155  1
  H  H392  1  0.20056113  0.52533780  0.07515558  1
  H  H393  1  0.24767553  0.53861450  0.14645493  1
  H  H394  1  0.23701228  0.69254431  0.13358495  1
  C  C395  1  0.24573985  0.68021500  0.04732409  1
  C  C396  1  0.24605722  0.60961988  0.21668634  1
  C  C397  1  0.20056441  0.74279894  0.08785589  1
  C  C398  1  0.06453451  0.65881977  0.01848284  1
  C  C399  1  0.11537051  0.56228724  0.00508972  1
  H  H400  1  0.11791883  0.73622360  0.23839615  1
  O  O401  1  0.18448996  0.74246220  0.17696672  1
  H  H402  1  0.04237064  0.58311259  0.00391904  1
  H  H403  1  0.02414619  0.72138816  0.00851463  1
  O  O404  1  0.23732324  0.64019824  0.24914569  1
  C  C405  1  0.26707689  0.63382031  0.03833210  1
  C  C406  1  0.31952913  0.52056571  0.07833249  1
  O  O407  1  0.33023631  0.52598027  0.12332917  1
  O  O408  1  0.28013708  0.58220792  0.22193613  1
  O  O409  1  0.42121946  0.51762149  0.03490008  1
  C  C410  1  0.28833302  0.60098716  0.06998375  1
  H  H411  1  0.29607812  0.60542212  0.11227916  1
  C  C412  1  0.29876569  0.55846849  0.04667833  1
  H  H413  1  0.40837976  0.64094434  0.15389293  1
  C  C414  1  0.41582921  0.59883600  0.08235461  1
  C  C415  1  0.40937630  0.68063635  0.07932724  1
  C  C416  1  0.40857216  0.63982547  0.11010446  1
  H  H417  1  0.41259326  0.56714323  0.10374789  1
  C  C418  1  0.42200638  0.59665332  0.02737711  1
  N  N419  1  0.41260183  0.72571116  0.09763218  1
  H  H420  1  0.34623798  0.68458618  0.15467152  1
  C  C421  1  0.42250159  0.67800989  0.02334054  1
  C  C422  1  0.43941128  0.72414577  0.01121671  1
  C  C423  1  0.36065162  0.71349771  0.17259208  1
  C  C424  1  0.42136222  0.55150577  0.00275049  1
  H  H425  1  0.31379759  0.71415862  0.23690802  1
  C  C426  1  0.34401111  0.73008871  0.21840113  1
  O  O427  1  0.37525518  0.61718612  0.24554050  1
  C  C428  1  0.39880813  0.73822533  0.14879947  1
  H  H429  1  0.49447027  0.52931994  0.01087750  1
  C  C430  1  0.06145527  0.99760239  0.23367515  1
  C  C431  1  0.18732498  0.76075963  0.03768135  1
  C  C432  1  0.01117137  0.87717756  0.24935292  1
  C  C433  1  0.17591849  0.75816806  0.13505427  1
  O  O434  1  0.01681656  0.78815769  0.06844244  1
  C  C435  1  0.04179845  0.76613466  0.09974942  1
  H  H436  1  0.02275450  0.95724009  0.17715348  1
  H  H437  1  0.06442991  0.96264121  0.07018172  1
  O  O438  1  0.05126783  0.77974861  0.14482688  1
  C  C439  1  0.03668798  0.95880006  0.21747732  1
  H  H440  1  0.12115128  0.90149000  0.13534574  1
  O  O441  1  0.14211624  0.78878281  0.12949740  1
  Cu  Cu442  1  0.09918882  0.81690482  0.17167884  1
  C  C443  1  0.18870347  0.87209183  0.12835003  1
  C  C444  1  0.14885108  0.89181849  0.10928298  1
  C  C445  1  0.14366098  0.90041111  0.05561918  1
  C  C446  1  0.22686114  0.86076763  0.09531687  1
  O  O447  1  0.14339799  0.85721298  0.20230183  1
  C  C448  1  0.18688720  0.86077404  0.18626127  1
  C  C449  1  0.22451356  0.86475590  0.04040772  1
  O  O450  1  0.21897332  0.84824603  0.21098631  1
  C  C451  1  0.07128834  0.94919507  0.02921999  1
  H  H452  1  0.16468003  0.79081771  0.03453653  1
  C  C453  1  0.10964682  0.92040911  0.02071250  1
  C  C454  1  0.18152315  0.88377115  0.02077236  1
  H  H455  1  0.24944883  0.92101526  0.22794215  1
  H  H456  1  0.47475757  0.85521004  0.00442686  1
  O  O457  1  0.47384157  0.86439588  0.23381064  1
  H  H458  1  0.25911463  0.84544496  0.10997902  1
  C  C459  1  0.31108064  0.89988291  0.06089658  1
  C  C460  1  0.32046527  0.89841603  0.20951289  1
  H  H461  1  0.37355832  0.93584862  0.02139794  1
  H  H462  1  0.25374902  0.86058478  0.01587291  1
  C  C463  1  0.48628277  0.90286258  0.21358324  1
  C  C464  1  0.40279516  0.79488442  0.21824758  1
  C  C465  1  0.33126986  0.83547227  0.14030879  1
  C  C466  1  0.33678170  0.82149565  0.08903007  1
  H  H467  1  0.34864882  0.78633228  0.08110912  1
  C  C468  1  0.46464005  0.81776429  0.00780433  1
  H  H469  1  0.29990745  0.95036101  0.11953966  1
  H  H470  1  0.30498834  0.92243004  0.02845083  1
  C  C471  1  0.36724769  0.89562700  0.22704899  1
  C  C472  1  0.31056380  0.91401713  0.11198641  1
  H  H473  1  0.39199517  0.88513113  0.19690363  1
  H  H474  1  0.43215726  0.82355576  0.08398184  1
  C  C475  1  0.32094937  0.88263156  0.15300736  1
  C  C476  1  0.36180583  0.77389595  0.23847209  1
  H  H477  1  0.33293961  0.80677607  0.16701318  1
  C  C478  1  0.28413005  0.91603661  0.24197109  1
  H  H479  1  0.44904878  0.79323045  0.15123565  1
  C  C480  1  0.44181950  0.80031527  0.05166390  1
  C  C481  1  0.43150400  0.75230726  0.05774351  1
  H  H482  1  0.30608044  0.75260943  0.03018033  1
  C  C483  1  0.32787988  0.85478514  0.04942776  1
  C  C484  1  0.42116463  0.77621981  0.17202817  1
  O  O485  1  0.47198966  0.91551857  0.17147959  1
  H  H486  1  0.28718782  0.83629655  0.23715636  1
  H  H487  1  0.41516673  0.82396103  0.24178226  1
  H  H488  1  0.06645116  0.57865186  0.47577390  1
  H  H489  1  0.13575270  0.57608892  0.39100363  1
  C  C490  1  0.13818716  0.53937058  0.38173841  1
  O  O491  1  0.19974900  0.59148089  0.32972626  1
  C  C492  1  0.17021241  0.51936686  0.34795148  1
  C  C493  1  0.20272248  0.54981720  0.31967658  1
  H  H494  1  0.08983578  0.68821915  0.39154934  1
  C  C495  1  0.05324573  0.54372387  0.47132247  1
  C  C496  1  0.06146824  0.68462193  0.29384957  1
  C  C497  1  0.11178864  0.70939456  0.36695293  1
  C  C498  1  0.10277136  0.71199926  0.31314008  1
  C  C499  1  0.15195391  0.73209625  0.38256973  1
  O  O500  1  0.04479364  0.65639313  0.32905407  1
  C  C501  1  0.01181454  0.53301187  0.49761177  1
  C  C502  1  0.17356610  0.73083056  0.43396133  1
  C  C503  1  0.13085433  0.73842595  0.28048619  1
  C  C504  1  0.07593624  0.50654541  0.44693545  1
  C  C505  1  0.10984866  0.50420045  0.40431646  1
  H  H506  1  0.03253463  0.52938798  0.32132144  1
  O  O507  1  0.00597285  0.73615345  0.43718479  1
  C  C508  1  0.16094291  0.71006291  0.48188941  1
  C  C509  1  0.19442582  0.50007313  0.47498708  1
  H  H510  1  0.12871177  0.69009225  0.48700758  1
  O  O511  1  0.04594872  0.68877932  0.25089787  1
  O  O512  1  0.23080650  0.53364031  0.28647522  1
  Cu  Cu513  1  0.24810792  0.63730181  0.32247279  1
  C  C514  1  0.00862722  0.50131837  0.33675528  1
  H  H515  1  0.25387189  0.65398601  0.48531176  1
  O  O516  1  0.27393947  0.64707017  0.39192300  1
  C  C517  1  0.31137246  0.67088461  0.40377659  1
  O  O518  1  0.33992465  0.68220923  0.37319722  1
  C  C519  1  0.43894752  0.55542087  0.34547763  1
  C  C520  1  0.31872497  0.68291767  0.45864602  1
  C  C521  1  0.42710789  0.58999640  0.30738831  1
  C  C522  1  0.45938867  0.62326107  0.29436608  1
  C  C523  1  0.35620083  0.71179555  0.46954985  1
  H  H524  1  0.38036197  0.72229136  0.43746916  1
  H  H525  1  0.41488238  0.52648512  0.34915908  1
  C  C526  1  0.37899667  0.54303993  0.46295168  1
  H  H527  1  0.35952459  0.57690583  0.46797310  1
  H  H528  1  0.45137139  0.71636786  0.35109055  1
  C  C529  1  0.27982011  0.51941700  0.45940844  1
  H  H530  1  0.45169420  0.65866172  0.41868023  1
  O  O531  1  0.35518059  0.55429760  0.28681648  1
  C  C532  1  0.47853045  0.55661098  0.37623973  1
  H  H533  1  0.48237420  0.53039662  0.40744332  1
  Cu  Cu534  1  0.29334186  0.54759478  0.28392854  1
  C  C535  1  0.38321915  0.58755284  0.27634734  1
  C  C536  1  0.36114025  0.50736286  0.42962564  1
  C  C537  1  0.42191600  0.53574307  0.48457359  1
  C  C538  1  0.28681795  0.66704637  0.49743043  1
  H  H539  1  0.45516236  0.64271317  0.25847902  1
  N  N540  1  0.31355744  0.50013575  0.42360555  1
  C  C541  1  0.47481426  0.68727907  0.42239132  1
  C  C542  1  0.47389899  0.72157125  0.38459553  1
  C  C543  1  0.28084963  0.55260673  0.49974168  1
  C  C544  1  0.15659554  0.99094945  0.36781269  1
  C  C545  1  0.18084449  0.76338880  0.35003715  1
  C  C546  1  0.00191399  0.80842807  0.31059497  1
  C  C547  1  0.16964103  0.76316032  0.29630591  1
  C  C548  1  0.21588825  0.75792477  0.42996475  1
  H  H549  1  0.00861222  0.79247690  0.34792046  1
  C  C550  1  0.14027138  0.98023168  0.41720129  1
  H  H551  1  0.18859480  0.78430254  0.26904848  1
  N  N552  1  0.21948711  0.77651203  0.37997478  1
  H  H553  1  0.02436446  0.92276579  0.43146197  1
  C  C554  1  0.02128934  0.85207432  0.29905231  1
  C  C555  1  0.17029574  0.94937562  0.33486358  1
  H  H556  1  0.13846402  0.94455517  0.43215705  1
  H  H557  1  0.08388993  0.97078955  0.36445055  1
  C  C558  1  0.07119291  0.96698865  0.32437396  1
  H  H559  1  0.22365403  0.83732731  0.30172506  1
  H  H560  1  0.10112127  0.81562088  0.34448627  1
  C  C561  1  0.09684659  0.83685883  0.37981561  1
  C  C562  1  0.12015571  0.85989132  0.46648135  1
  C  C563  1  0.05388988  0.89985099  0.42548019  1
  C  C564  1  0.08213962  0.89262734  0.46977522  1
  C  C565  1  0.06219448  0.87090034  0.38027838  1
  N  N566  1  0.04380046  0.88268426  0.33096813  1
  C  C567  1  0.04849224  0.92638256  0.30852376  1
  C  C568  1  0.12820498  0.83250000  0.42079994  1
  H  H569  1  0.15817745  0.80924172  0.41704290  1
  O  O570  1  0.17276634  0.91051716  0.35244518  1
  H  H571  1  0.20989095  0.86111767  0.44795635  1
  C  C572  1  0.20167941  0.85893370  0.49127489  1
  O  O573  1  0.18213414  0.95940838  0.29031592  1
  H  H574  1  0.21012865  0.94498175  0.45518177  1
  C  C575  1  0.24217854  0.76924450  0.47659151  1
  C  C576  1  0.24528184  0.95901893  0.44897730  1
  C  C577  1  0.02956176  0.92383796  0.25566289  1
  H  H578  1  0.37257690  0.75771798  0.34630139  1
  H  H579  1  0.31114379  0.75827524  0.40953833  1
  H  H580  1  0.25441179  0.91640299  0.38125955  1
  C  C581  1  0.33344802  0.79152163  0.28375912  1
  O  O582  1  0.48365658  0.78847749  0.29635379  1
  C  C583  1  0.27297009  0.93881157  0.41018257  1
  C  C584  1  0.25492367  0.81991332  0.30998267  1
  C  C585  1  0.30408782  0.77433499  0.37036491  1
  C  C586  1  0.39497940  0.96033004  0.37952911  1
  H  H587  1  0.43377096  0.79661793  0.48985563  1
  H  H588  1  0.26997209  0.93860307  0.32188973  1
  C  C589  1  0.47823252  0.96412613  0.39120224  1
  H  H590  1  0.27221693  0.79232632  0.47502243  1
  C  C591  1  0.29660011  0.92700888  0.29473975  1
  C  C592  1  0.47081788  0.98985812  0.43782078  1
  N  N593  1  0.35227619  0.94149443  0.36588391  1
  C  C594  1  0.38919871  0.98761022  0.42675124  1
  C  C595  1  0.34013476  0.77433423  0.33514086  1
  C  C596  1  0.31772055  0.95599763  0.39986440  1
  C  C597  1  0.44160052  0.95094908  0.36085782  1
  C  C598  1  0.34273163  0.92359849  0.31474722  1
  C  C599  1  0.33861675  0.98910173  0.43782953  1
  C  C600  1  0.25984808  0.79429292  0.35699780  1
  H  H601  1  0.44945346  0.93210598  0.32444437  1
  C  C602  1  0.29147074  0.81859471  0.27441012  1
  C  C603  1  0.26607970  0.99136836  0.48203019  1
  C  C604  1  0.37676168  0.90998485  0.27837973  1
  H  H605  1  0.41423254  0.90821161  0.29061135  1
  O  O606  1  0.11897888  0.57452415  0.66654754  1
  Cu  Cu607  1  0.12361269  0.62109457  0.61859791  1
  O  O608  1  0.04983326  0.54872199  0.64839135  1
  C  C609  1  0.09260089  0.54202918  0.65720120  1
  O  O610  1  0.13702173  0.67228575  0.57678169  1
  C  C611  1  0.17479082  0.69743758  0.57442907  1
  O  O612  1  0.16607491  0.58354097  0.57505573  1
  O  O613  1  0.07671013  0.65806020  0.65934514  1
  C  C614  1  0.03298378  0.65978356  0.66162879  1
  C  C615  1  0.19019061  0.72063906  0.52365206  1
  C  C616  1  0.16003175  0.54585871  0.55070602  1
  C  C617  1  0.01180230  0.70517683  0.66691690  1
  O  O618  1  0.12373900  0.52839562  0.54174601  1
  H  H619  1  0.16802449  0.51572379  0.70332948  1
  H  H620  1  0.07610565  0.74296376  0.65420126  1
  C  C621  1  0.03900638  0.74523434  0.66173775  1
  O  O622  1  0.19946697  0.70122785  0.61080726  1
  C  C623  1  0.22867392  0.74950075  0.52422942  1
  C  C624  1  0.20077171  0.53137548  0.51361609  1
  O  O625  1  0.00803115  0.62466027  0.66434073  1
  Cu  Cu626  1  0.01287164  0.57305124  0.70095244  1
  O  O627  1  0.00218304  0.61336241  0.52367178  1
  H  H628  1  0.23858126  0.58739855  0.55457499  1
  C  C629  1  0.23921693  0.55944546  0.52456616  1
  H  H630  1  0.25138389  0.63465779  0.70602374  1
  H  H631  1  0.45326709  0.50551482  0.58292046  1
  H  H632  1  0.27128343  0.66236119  0.58139199  1
  C  C633  1  0.43893804  0.63937260  0.52507942  1
  C  C634  1  0.36440482  0.53664462  0.61801053  1
  H  H635  1  0.34163820  0.55125558  0.58573971  1
  C  C636  1  0.35119345  0.68168463  0.65594418  1
  C  C637  1  0.38499476  0.65464819  0.68384271  1
  H  H638  1  0.42351222  0.65137134  0.67537548  1
  N  N639  1  0.36336545  0.70264346  0.60840400  1
  C  C640  1  0.28895822  0.64526305  0.70238122  1
  C  C641  1  0.30253179  0.67752414  0.66616905  1
  C  C642  1  0.33657683  0.69918831  0.56415061  1
  C  C643  1  0.43917717  0.58444721  0.59764455  1
  C  C644  1  0.41071666  0.55236489  0.63023124  1
  H  H645  1  0.37863403  0.61079146  0.56220078  1
  C  C646  1  0.41537080  0.61184020  0.56020008  1
  C  C647  1  0.43568499  0.53229496  0.67200214  1
  C  C648  1  0.37028073  0.62323265  0.72224619  1
  C  C649  1  0.32130642  0.61832203  0.73118606  1
  H  H650  1  0.27821731  0.70085320  0.64650444  1
  C  C651  1  0.29759269  0.67111149  0.55051268  1
  H  H652  1  0.47023566  0.54705650  0.68209908  1
  C  C653  1  0.40312641  0.73042101  0.60214859  1
  H  H654  1  0.39660076  0.60046073  0.74116836  1
  H  H655  1  0.42369150  0.66697592  0.50089646  1
  H  H656  1  0.43585501  0.55848627  0.51365957  1
  C  C657  1  0.36598843  0.72043178  0.52341247  1
  H  H658  1  0.44298020  0.72762687  0.67768689  1
  C  C659  1  0.48769680  0.63931356  0.53121025  1
  C  C660  1  0.44071088  0.74016176  0.63681665  1
  C  C661  1  0.40377520  0.74689491  0.54702772  1
  C  C662  1  0.48911200  0.58283069  0.59881809  1
  C  C663  1  0.49085926  0.68218239  0.74692953  1
  H  H664  1  0.39449925  0.72029688  0.74938019  1
  C  C665  1  0.49300392  0.73066602  0.74698469  1
  H  H666  1  0.31069916  0.57610302  0.51009653  1
  H  H667  1  0.24713960  0.75811550  0.55997920  1
  O  O668  1  0.20437633  0.99049451  0.54282736  1
  C  C669  1  0.10368962  0.98473723  0.54124416  1
  H  H670  1  0.01294497  0.90045330  0.67052706  1
  H  H671  1  0.01817886  0.94159346  0.59008068  1
  H  H672  1  0.02595119  0.98587239  0.53338311  1
  O  O673  1  0.05961128  0.98308066  0.67231793  1
  C  C674  1  0.08269563  0.96921414  0.63603817  1
  C  C675  1  0.01910931  0.78883886  0.66412263  1
  C  C676  1  0.18689435  0.96741822  0.69445546  1
  H  H677  1  0.16552118  0.89725612  0.68102973  1
  O  O678  1  0.10310407  0.93177206  0.63689085  1
  H  H679  1  0.03912456  0.82062057  0.65248202  1
  C  C680  1  0.14218900  0.84758174  0.56293185  1
  C  C681  1  0.17945505  0.84909872  0.59825833  1
  H  H682  1  0.10623077  0.83755623  0.57536740  1
  H  H683  1  0.17315823  0.84955018  0.64118342  1
  C  C684  1  0.19514452  0.92279520  0.67932243  1
  H  H685  1  0.15123859  0.97526603  0.70606817  1
  C  C686  1  0.22559381  0.86059359  0.58168342  1
  H  H687  1  0.11001665  0.94804944  0.53636075  1
  C  C688  1  0.23983777  0.91345423  0.65598764  1
  C  C689  1  0.23785393  0.86385040  0.52752004  1
  C  C690  1  0.15476278  0.85307264  0.50942276  1
  H  H691  1  0.07393405  0.91098829  0.50689492  1
  C  C692  1  0.35772603  0.92818904  0.74599942  1
  O  O693  1  0.49555212  0.84503261  0.50435798  1
  O  O694  1  0.43739317  0.99017562  0.57262123  1
  C  C695  1  0.30172595  0.88704411  0.60740483  1
  C  C696  1  0.35791959  0.95426921  0.62247236  1
  C  C697  1  0.42684168  0.94852563  0.56115400  1
  C  C698  1  0.47269132  0.77202665  0.61691913  1
  C  C699  1  0.38689781  0.93006069  0.58899060  1
  H  H700  1  0.28443896  0.90433945  0.74717160  1
  C  C701  1  0.49631322  0.92279587  0.64503129  1
  H  H702  1  0.36707227  0.99047165  0.62872018  1
  O  O703  1  0.44534154  0.92747215  0.52412224  1
  H  H704  1  0.40013249  0.86688472  0.54452343  1
  C  C705  1  0.37620291  0.88335676  0.57253164  1
  C  C706  1  0.33539615  0.85800957  0.58192644  1
  C  C707  1  0.45942217  0.92671296  0.68087552  1
  H  H708  1  0.49729140  0.89251655  0.62038833  1
  C  C709  1  0.31490750  0.93157805  0.62904441  1
  H  H710  1  0.32883385  0.82159400  0.57005733  1
  N  N711  1  0.25502101  0.88098567  0.62045752  1
  H  H712  1  0.36314724  0.92448693  0.70372328  1
  C  C713  1  0.27419046  0.95149236  0.65619352  1
  C  C714  1  0.46877019  0.78973550  0.56718177  1
  C  C715  1  0.43435696  0.78041161  0.52913484  1
  H  H716  1  0.43312047  0.90039076  0.68653793  1
  C  C717  1  0.26283318  0.99566429  0.67047264  1
  C  C718  1  0.45784423  0.96519367  0.71524261  1
  H  H719  1  0.27294377  0.87358096  0.51540545  1
  C  C720  1  0.14114413  0.59938917  0.89329598  1
  H  H721  1  0.11975477  0.56863299  0.90063286  1
  C  C722  1  0.17917742  0.60916835  0.92412237  1
  H  H723  1  0.19301308  0.58535818  0.95345379  1
  C  C724  1  0.05649447  0.67136076  0.81480879  1
  C  C725  1  0.20027187  0.65315945  0.92091798  1
  C  C726  1  0.12267556  0.63457758  0.85960457  1
  C  C727  1  0.18139434  0.68870800  0.88871021  1
  C  C728  1  0.07434124  0.63107909  0.83791823  1
  C  C729  1  0.14264047  0.67896150  0.85805437  1
  H  H730  1  0.06017154  0.55868439  0.86023192  1
  C  C731  1  0.04678449  0.59057046  0.84586076  1
  H  H732  1  0.12590571  0.70641277  0.83861523  1
  H  H733  1  0.19855266  0.59345847  0.83828098  1
  H  H734  1  0.07817169  0.70135343  0.80613808  1
  H  H735  1  0.19390375  0.72571934  0.88915856  1
  C  C736  1  0.14131101  0.54402537  0.79922647  1
  C  C737  1  0.09783347  0.53617514  0.77981662  1
  C  C738  1  0.23150303  0.57780409  0.82293562  1
  N  N739  1  0.23453428  0.66106424  0.96053081  1
  C  C740  1  0.24087826  0.52986627  0.82865944  1
  H  H741  1  0.04655128  0.64463367  0.98416126  1
  C  C742  1  0.19993078  0.73656961  0.99352285  1
  H  H743  1  0.24866995  0.64050180  0.79167748  1
  C  C744  1  0.22795509  0.69566941  0.99682960  1
  C  C745  1  0.06737724  0.55545830  0.99422833  1
  N  N746  1  0.20603564  0.50053437  0.84642086  1
  C  C747  1  0.15942873  0.50799399  0.83200451  1
  H  H748  1  0.16011822  0.57541599  0.78893195  1
  C  C749  1  0.15405138  0.53502731  0.98886956  1
  C  C750  1  0.05558509  0.51348194  0.97323884  1
  C  C751  1  0.00825295  0.67409977  0.80694804  1
  H  H752  1  0.19091000  0.54079162  0.99800457  1
  H  H753  1  0.08195981  0.56577715  0.75894423  1
  H  H754  1  0.01936870  0.50421647  0.96398148  1
  H  H755  1  0.00764546  0.71928915  0.88565319  1
  H  H756  1  0.18709543  0.74531896  0.95477903  1
  O  O757  1  0.00156338  0.53429433  0.75692176  1
  C  C758  1  0.25945216  0.62477838  0.98282676  1
  H  H759  1  0.26653977  0.57315143  0.91916769  1
  C  C760  1  0.27014551  0.58052376  0.96082511  1
  C  C761  1  0.25937792  0.60493112  0.79290177  1
  H  H762  1  0.30449508  0.51561366  0.97784162  1
  H  H763  1  0.45720550  0.72387900  0.92641586  1
  H  H764  1  0.40205928  0.51094211  0.79135031  1
  C  C765  1  0.28121967  0.51101829  0.80468718  1
  O  O766  1  0.33936870  0.64924781  0.89262611  1
  O  O767  1  0.42545292  0.54669977  0.95363498  1
  H  H768  1  0.42998520  0.63283740  0.95390404  1
  O  O769  1  0.37569862  0.69131152  0.83066402  1
  C  C770  1  0.35895043  0.68347992  0.87902099  1
  Cu  Cu771  1  0.33710593  0.69078376  0.77611689  1
  Cu  Cu772  1  0.47865419  0.51416417  0.92935786  1
  C  C773  1  0.45643294  0.74239322  0.96334752  1
  H  H774  1  0.31477599  0.68625223  0.97318785  1
  C  C775  1  0.31108651  0.53877981  0.77575122  1
  C  C776  1  0.33227858  0.71897863  0.96059317  1
  C  C777  1  0.35787945  0.72488742  0.91383224  1
  C  C778  1  0.28980839  0.54817466  0.99336874  1
  H  H779  1  0.46019872  0.66280316  0.76111401  1
  C  C780  1  0.29913172  0.58530795  0.76921137  1
  O  O781  1  0.31267382  0.74606151  0.75613003  1
  C  C782  1  0.42375086  0.63541448  0.99639027  1
  H  H783  1  0.33832241  0.52087365  0.75195892  1
  O  O784  1  0.00256345  0.98103181  0.81450023  1
  C  C785  1  0.01041704  0.99917627  0.99719427  1
  H  H786  1  0.02752362  0.95354435  0.90574308  1
  C  C787  1  0.05254859  0.94745945  0.93773345  1
  H  H788  1  0.09874457  0.91176336  0.88667657  1
  C  C789  1  0.09213808  0.92300614  0.92602226  1
  C  C790  1  0.19861137  0.89079492  0.92597278  1
  C  C791  1  0.12437005  0.91212041  0.96694877  1
  H  H792  1  0.16699560  0.95486081  0.90075484  1
  C  C793  1  0.19471550  0.93069675  0.89420977  1
  N  N794  1  0.16685826  0.88979489  0.96997219  1
  C  C795  1  0.22839483  0.94074639  0.85747568  1
  C  C796  1  0.04307418  0.96215453  0.98801066  1
  H  H797  1  0.22915802  0.97010566  0.83315930  1
  C  C798  1  0.23640669  0.85977612  0.92536237  1
  C  C799  1  0.08085964  0.77964760  0.82353567  1
  O  O800  1  0.10920821  0.78970908  0.84729925  1
  H  H801  1  0.24061606  0.83195730  0.95132237  1
  C  C802  1  0.41842882  0.87505744  0.89295666  1
  C  C803  1  0.26583378  0.90871468  0.85409628  1
  C  C804  1  0.38620759  0.91798413  0.98665455  1
  C  C805  1  0.47789312  0.94097791  0.88975485  1
  H  H806  1  0.34118621  0.94211808  0.89856400  1
  C  C807  1  0.40844658  0.75417967  0.75787228  1
  C  C808  1  0.45622938  0.76305861  0.76124710  1
  C  C809  1  0.47779095  0.80858136  0.76400544  1
  O  O810  1  0.49125354  0.97744385  0.90503347  1
  C  C811  1  0.32980847  0.78801174  0.76835982  1
  H  H812  1  0.41274614  0.97598925  0.85630024  1
  C  C813  1  0.37814681  0.76500454  0.89297005  1
  O  O814  1  0.49815755  0.91830612  0.85310001  1
  H  H815  1  0.43500365  0.86062142  0.85800947  1
  C  C816  1  0.31000490  0.92414560  0.82493198  1
  C  C817  1  0.49694221  0.80531151  0.91874792  1
  C  C818  1  0.44735605  0.84579915  0.77596286  1
  C  C819  1  0.34351068  0.79925028  0.97512391  1
  C  C820  1  0.38685923  0.95926087  0.83148095  1
  C  C821  1  0.27164789  0.87047668  0.88956177  1
  O  O822  1  0.30784296  0.82021833  0.78006127  1
  H  H823  1  0.44083497  0.96965657  0.97142151  1
  C  C824  1  0.37012704  0.87358456  0.97158448  1
  C  C825  1  0.38845564  0.84994908  0.92446062  1
  C  C826  1  0.32626470  0.75595800  0.99375484  1
  C  C827  1  0.38144886  0.79247544  0.77032911  1
  C  C828  1  0.39944859  0.83582718  0.77914670  1
  H  H829  1  0.46035143  0.87935183  0.78363112  1
  C  C830  1  0.39114691  0.95449198  0.77599430  1
  H  H831  1  0.37470133  0.86448805  0.79208454  1
  C  C832  1  0.43676853  0.91430404  0.91321513  1
  H  H833  1  0.40266637  0.76742848  0.86100328  1
  C  C834  1  0.47497417  0.78676784  0.96651740  1
  C  C835  1  0.42191286  0.93854709  0.95833458  1
  C  C836  1  0.36799778  0.80348239  0.92590315  1
  C  C837  1  0.34721013  0.94247205  0.85520546  1
  H  H838  1  0.30349507  0.84960348  0.88842706  1
  N  N839  1  0.34279270  0.84280066  0.99888658  1
  C  C840  1  0.31487310  0.91789576  0.76917120  1
  N  N841  1  0.42974635  0.98004971  0.75634153  1
  C  C842  1  0.64511754  0.21629989  0.18936017  1
  C  C843  1  0.64408583  0.19473396  0.13711673  1
  C  C844  1  0.61586726  0.15419632  0.12766833  1
  C  C845  1  0.59558580  0.13612215  0.17150686  1
  H  H846  1  0.57732665  0.10521670  0.17253172  1
  C  C847  1  0.59657140  0.15569771  0.22363977  1
  N  N848  1  0.66987169  0.22178110  0.10401639  1
  H  H849  1  0.61253776  0.14189756  0.08817944  1
  C  C850  1  0.67402884  0.20680374  0.05156089  1
  C  C851  1  0.69456975  0.16243474  0.04577450  1
  C  C852  1  0.62062386  0.19613726  0.23181764  1
  H  H853  1  0.70044893  0.13963129  0.07740088  1
  H  H854  1  0.70463938  0.10093382  0.20250896  1
  H  H855  1  0.63499576  0.05266232  0.21336461  1
  H  H856  1  0.55745555  0.04351375  0.21869238  1
  C  C857  1  0.65739310  0.23447100  0.00901593  1
  C  C858  1  0.69198548  0.09351114  0.24049996  1
  C  C859  1  0.73775245  0.17935537  0.23768676  1
  O  O860  1  0.72338282  0.02954942  0.15995532  1
  H  H861  1  0.70015672  0.18377548  0.23533283  1
  C  C862  1  0.55500970  0.00845423  0.23701783  1
  C  C863  1  0.65281885  0.06650599  0.24835152  1
  C  C864  1  0.74972009  0.03109277  0.05858048  1
  H  H865  1  0.75027427  0.22125134  0.02176722  1
  Cu  Cu866  1  0.99190618  0.02060412  0.13211029  1
  H  H867  1  0.76850277  0.05231824  0.08673814  1
  H  H868  1  0.75895483  0.19053508  0.11236403  1
  C  C869  1  0.76584229  0.20299646  0.20423091  1
  H  H870  1  0.97783271  0.17958217  0.03891282  1
  C  C871  1  0.95161101  0.02663358  0.22366494  1
  C  C872  1  0.78572303  0.21171296  0.09449907  1
  C  C873  1  0.81414097  0.19082814  0.20456436  1
  C  C874  1  0.82753693  0.22614454  0.11948488  1
  N  N875  1  0.84327210  0.21409520  0.16967222  1
  H  H876  1  0.95707943  0.05060670  0.19239358  1
  C  C877  1  0.92043798  0.21802916  0.21920126  1
  C  C878  1  0.88765876  0.22916450  0.17991995  1
  C  C879  1  0.96621422  0.23304386  0.21284383  1
  O  O880  1  0.92696759  0.00555154  0.12382039  1
  C  C881  1  0.78057653  0.23095500  0.04466845  1
  H  H882  1  0.75235333  0.23026343  0.17750470  1
  C  C883  1  0.83401417  0.15558204  0.23689849  1
  H  H884  1  0.87177020  0.15114768  0.23826980  1
  H  H885  1  0.98924842  0.22370037  0.24468744  1
  C  C886  1  0.75809035  0.03269416  0.00486237  1
  H  H887  1  0.82982825  0.10852335  0.01429773  1
  C  C888  1  0.67444424  0.25621540  0.18405513  1
  C  C889  1  0.68973822  0.25981147  0.12838470  1
  O  O890  1  0.54978062  0.26617943  0.03079680  1
  C  C891  1  0.74916408  0.34470663  0.24673102  1
  H  H892  1  0.64009715  0.26839355  0.01242810  1
  H  H893  1  0.56318866  0.48983242  0.13721695  1
  O  O894  1  0.52452991  0.33495552  0.02840886  1
  Cu  Cu895  1  0.52294218  0.34619657  0.10000516  1
  C  C896  1  0.71607554  0.29653093  0.10898447  1
  O  O897  1  0.53108706  0.35760627  0.17093486  1
  C  C898  1  0.69611939  0.28602744  0.21938325  1
  C  C899  1  0.72826058  0.31717278  0.20125452  1
  C  C900  1  0.67681261  0.42574107  0.09276126  1
  C  C901  1  0.57133032  0.36540173  0.19247161  1
  C  C902  1  0.65233751  0.39036510  0.17075941  1
  H  H903  1  0.72773977  0.40737572  0.15377969  1
  C  C904  1  0.69077288  0.40686640  0.14221115  1
  C  C905  1  0.59136385  0.40801615  0.10789614  1
  C  C906  1  0.60558718  0.38915346  0.15530392  1
  N  N907  1  0.70220171  0.44657988  0.05351489  1
  C  C908  1  0.62702446  0.42797259  0.07762444  1
  H  H909  1  0.55405888  0.41124752  0.09580486  1
  C  C910  1  0.62498819  0.45043978  0.02673082  1
  H  H911  1  0.65573420  0.36917393  0.20641941  1
  H  H912  1  0.55010345  0.43997458  0.22125574  1
  C  C913  1  0.55554995  0.47633032  0.22369566  1
  O  O914  1  0.57967173  0.35428190  0.23588734  1
  C  C915  1  0.67418225  0.46147426  0.01471281  1
  H  H916  1  0.72469058  0.29774817  0.06741115  1
  H  H917  1  0.73996944  0.36828606  0.06297854  1
  H  H918  1  0.55343367  0.46084186  0.00273169  1
  C  C919  1  0.73739531  0.32595268  0.14753367  1
  C  C920  1  0.53997937  0.29915302  0.00504622  1
  C  C921  1  0.91760320  0.37424623  0.00796969  1
  C  C922  1  0.80898623  0.38233494  0.02939286  1
  C  C923  1  0.86602396  0.25265745  0.09675479  1
  C  C924  1  0.90504344  0.25553404  0.13331195  1
  H  H925  1  0.96330520  0.29523841  0.09781395  1
  C  C926  1  0.75242266  0.44010427  0.04925172  1
  C  C927  1  0.83976758  0.41705469  0.01149572  1
  O  O928  1  0.77509467  0.37534095  0.23698351  1
  H  H929  1  0.76551240  0.35069921  0.13920859  1
  C  C930  1  0.85904511  0.26666529  0.04421673  1
  H  H931  1  0.81794313  0.34583613  0.02210595  1
  C  C932  1  0.97835466  0.26191069  0.17144781  1
  C  C933  1  0.81722560  0.25380730  0.02029524  1
  H  H934  1  0.88466123  0.29145052  0.02627784  1
  C  C935  1  0.78330404  0.47533100  0.03596885  1
  H  H936  1  0.92621824  0.38130644  0.04787867  1
  C  C937  1  0.82818888  0.46437818  0.01961161  1
  C  C938  1  0.76567988  0.39349025  0.04956417  1
  H  H939  1  0.97703088  0.32770198  0.00093194  1
  H  H940  1  0.94919061  0.25734683  0.01480099  1
  C  C941  1  0.95021493  0.27108271  0.12779535  1
  H  H942  1  0.85201483  0.49059561  0.00597648  1
  O  O943  1  0.72153883  0.20880801  0.37852845  1
  C  C944  1  0.68458576  0.20483724  0.39694116  1
  O  O945  1  0.66752303  0.16559460  0.41328356  1
  Cu  Cu946  1  0.62139884  0.15324116  0.36506279  1
  H  H947  1  0.61029498  0.20655413  0.44767415  1
  O  O948  1  0.58965129  0.11082620  0.41027119  1
  O  O949  1  0.56553884  0.14192948  0.48622254  1
  H  H950  1  0.65078604  0.06858475  0.38459133  1
  C  C951  1  0.66602670  0.07334099  0.34451131  1
  O  O952  1  0.57556816  0.15669367  0.31599337  1
  C  C953  1  0.70447829  0.10022781  0.33628599  1
  C  C954  1  0.55789383  0.12438213  0.44194621  1
  C  C955  1  0.64334370  0.05190989  0.30178681  1
  C  C956  1  0.73437181  0.03579397  0.46021745  1
  C  C957  1  0.71799796  0.11018858  0.28342587  1
  H  H958  1  0.62258573  0.21046668  0.27006111  1
  H  H959  1  0.53265024  0.07986793  0.35007821  1
  H  H960  1  0.72415524  0.11440143  0.36688772  1
  C  C961  1  0.61171874  0.23783935  0.42626542  1
  C  C962  1  0.57216038  0.13649113  0.26868314  1
  C  C963  1  0.72073989  0.06789470  0.49758609  1
  C  C964  1  0.65106075  0.24510492  0.39660161  1
  H  H965  1  0.51293073  0.21455411  0.49406729  1
  C  C966  1  0.51090125  0.00527949  0.46996955  1
  H  H967  1  0.71773066  0.00323399  0.46053986  1
  C  C968  1  0.51139207  0.11415094  0.42452494  1
  H  H969  1  0.69545386  0.01626821  0.39303896  1
  C  C970  1  0.50389357  0.09005757  0.37648646  1
  N  N971  1  0.61642341  0.01344608  0.31392205  1
  Cu  Cu972  1  0.60290429  0.00827650  0.49987366  1
  O  O973  1  0.54882746  0.10335906  0.26587276  1
  C  C974  1  0.98934599  0.07323445  0.29983668  1
  C  C975  1  0.85337648  0.01196420  0.28985870  1
  N  N976  1  0.98056562  0.01601536  0.36098378  1
  C  C977  1  0.77251213  0.04623925  0.42834828  1
  C  C978  1  0.96837663  0.03311787  0.27409876  1
  C  C979  1  0.79490743  0.09066282  0.43385594  1
  N  N980  1  0.83268719  0.09110353  0.40188556  1
  C  C981  1  0.85913450  0.13147590  0.39020722  1
  C  C982  1  0.83414645  0.17365408  0.38889831  1
  C  C983  1  0.85861556  0.21295237  0.37425109  1
  C  C984  1  0.90896115  0.13029229  0.38539410  1
  C  C985  1  0.83653430  0.05329925  0.36862725  1
  C  C986  1  0.93371929  0.17052830  0.37148682  1
  H  H987  1  0.92776926  0.09911624  0.39586438  1
  H  H988  1  0.79688646  0.17689562  0.39770144  1
  H  H989  1  0.97180468  0.16851075  0.36501656  1
  H  H990  1  0.89787311  0.06734706  0.31697808  1
  C  C991  1  0.86662094  0.04554163  0.32701484  1
  C  C992  1  0.79382086  0.02642258  0.38115399  1
  C  C993  1  0.90826106  0.21194928  0.36769280  1
  C  C994  1  0.77952374  0.12370113  0.47354978  1
  H  H995  1  0.81585765  0.10270641  0.29420238  1
  H  H996  1  0.79428691  0.15795587  0.47684882  1
  H  H997  1  0.93036231  0.17645817  0.46939763  1
  C  C998  1  0.80519264  0.13246297  0.27274117  1
  H  H999  1  0.87616589  0.00296582  0.25824965  1
  H  H1000  1  0.90742349  0.20177923  0.25557054  1
  H  H1001  1  0.84191635  0.24554276  0.37254230  1
  C  C1002  1  0.84782942  0.23325836  0.49606129  1
  O  O1003  1  0.97857383  0.09980770  0.47771019  1
  C  C1004  1  0.75723824  0.14477703  0.27040832  1
  C  C1005  1  0.50352553  0.25048631  0.48583695  1
  C  C1006  1  0.51580930  0.32412366  0.43988198  1
  C  C1007  1  0.50249820  0.39642508  0.34986617  1
  C  C1008  1  0.71496881  0.48260447  0.42236387  1
  C  C1009  1  0.69672577  0.47200317  0.30780337  1
  C  C1010  1  0.53128815  0.27778237  0.45481087  1
  C  C1011  1  0.57648925  0.27221606  0.42838234  1
  H  H1012  1  0.52261911  0.44197359  0.44882523  1
  C  C1013  1  0.54276369  0.38562567  0.38109180  1
  H  H1014  1  0.69347025  0.29452565  0.35299017  1
  C  C1015  1  0.65992325  0.28617593  0.36897594  1
  H  H1016  1  0.61208775  0.40487334  0.40791838  1
  O  O1017  1  0.72286477  0.36124101  0.39566290  1
  C  C1018  1  0.62894393  0.32167250  0.37011297  1
  C  C1019  1  0.71755323  0.39813041  0.42527999  1
  C  C1020  1  0.71340442  0.44178810  0.39304778  1
  C  C1021  1  0.70413318  0.43419840  0.33942661  1
  O  O1022  1  0.71898538  0.39482975  0.47174763  1
  H  H1023  1  0.70117615  0.39914600  0.32332831  1
  C  C1024  1  0.58717797  0.31503688  0.40040749  1
  H  H1025  1  0.63636883  0.35174595  0.34835818  1
  C  C1026  1  0.58440363  0.45260399  0.35499790  1
  C  C1027  1  0.58309247  0.41443925  0.38513650  1
  C  C1028  1  0.54633605  0.46103980  0.32068297  1
  N  N1029  1  0.54964007  0.34420579  0.40796150  1
  H  H1030  1  0.68771592  0.28248345  0.26162100  1
  H  H1031  1  0.68854987  0.47223050  0.26498928  1
  H  H1032  1  0.61694032  0.47295910  0.35139004  1
  O  O1033  1  0.73895934  0.33430436  0.29542183  1
  C  C1034  1  0.50456615  0.43566703  0.31753056  1
  H  H1035  1  0.72443420  0.48379062  0.46454186  1
  C  C1036  1  0.55604092  0.49439698  0.27580119  1
  C  C1037  1  0.51266554  0.44137815  0.48881030  1
  Cu  Cu1038  1  0.77490045  0.34990209  0.35360105  1
  H  H1039  1  0.97237995  0.25203903  0.42298387  1
  C  C1040  1  0.96249824  0.27347011  0.39056861  1
  H  H1041  1  0.90950842  0.49272211  0.41351860  1
  O  O1042  1  0.88967577  0.34481196  0.41200619  1
  C  C1043  1  0.83168225  0.30112052  0.45082278  1
  O  O1044  1  0.88425061  0.47741616  0.49366918  1
  C  C1045  1  0.91917893  0.28296185  0.30463775  1
  C  C1046  1  0.93764119  0.48073360  0.38931679  1
  C  C1047  1  0.96978902  0.34159637  0.33755611  1
  C  C1048  1  0.93926933  0.32503022  0.29726917  1
  C  C1049  1  0.86451587  0.26851715  0.46271778  1
  C  C1050  1  0.98463623  0.42448976  0.35102402  1
  H  H1051  1  0.89771753  0.26714293  0.44171424  1
  C  C1052  1  0.84901249  0.34156939  0.41989566  1
  C  C1053  1  0.94508454  0.43387232  0.38138468  1
  C  C1054  1  0.98140038  0.31668006  0.38350088  1
  N  N1055  1  0.99624201  0.38230051  0.32883328  1
  H  H1056  1  0.91937846  0.40735723  0.39545295  1
  O  O1057  1  0.81779493  0.37142737  0.40391574  1
  C  C1058  1  0.93212053  0.25743669  0.35065714  1
  H  H1059  1  0.76246796  0.32854161  0.45199800  1
  H  H1060  1  0.89651235  0.26696121  0.27628014  1
  H  H1061  1  0.93299295  0.34494540  0.26213995  1
  C  C1062  1  0.78538000  0.30223409  0.46897462  1
  C  C1063  1  0.57753141  0.10902953  0.64976808  1
  C  C1064  1  0.58016662  0.14148979  0.68991283  1
  C  C1065  1  0.60940103  0.07323986  0.64092625  1
  C  C1066  1  0.64476057  0.06972531  0.67909403  1
  C  C1067  1  0.63346549  0.21728522  0.55074867  1
  H  H1068  1  0.54522381  0.21354614  0.60195617  1
  H  H1069  1  0.60760135  0.05208426  0.60684832  1
  O  O1070  1  0.62278986  0.17606660  0.56707065  1
  C  C1071  1  0.70061719  0.20767114  0.68009226  1
  O  O1072  1  0.66317613  0.09518552  0.55560982  1
  C  C1073  1  0.67742245  0.03166600  0.69011559  1
  C  C1074  1  0.66224136  0.21997687  0.71781102  1
  H  H1075  1  0.54940843  0.16386004  0.69494143  1
  C  C1076  1  0.64600679  0.10118627  0.72350103  1
  C  C1077  1  0.61561993  0.13851072  0.72667522  1
  C  C1078  1  0.53674158  0.10600024  0.61422119  1
  O  O1079  1  0.53157491  0.07343581  0.58034900  1
  C  C1080  1  0.72042459  0.16398954  0.66806751  1
  H  H1081  1  0.70681234  0.13374508  0.68510649  1
  C  C1082  1  0.70040563  0.04360078  0.73971767  1
  H  H1083  1  0.73303479  0.13492102  0.53485746  1
  C  C1084  1  0.67863639  0.06258834  0.52837796  1
  O  O1085  1  0.66429513  0.22361069  0.52081017  1
  C  C1086  1  0.62541702  0.23597247  0.68613336  1
  Cu  Cu1087  1  0.61315975  0.12213870  0.52476380  1
  H  H1088  1  0.62711912  0.23154927  0.64304764  1
  O  O1089  1  0.65882770  0.02420835  0.52698859  1
  H  H1090  1  0.55693945  0.02379619  0.66227532  1
  H  H1091  1  0.53868710  0.08521483  0.73514668  1
  C  C1092  1  0.55921052  0.24733141  0.59416227  1
  C  C1093  1  0.74302633  0.11215942  0.50415178  1
  H  H1094  1  0.50208453  0.24224093  0.70512543  1
  C  C1095  1  0.71443181  0.24940094  0.65560753  1
  O  O1096  1  0.50739903  0.13482942  0.61998962  1
  O  O1097  1  0.50072817  0.03487160  0.50293885  1
  H  H1098  1  0.75224287  0.01703762  0.58420466  1
  C  C1099  1  0.75560010  0.16481257  0.62972254  1
  H  H1100  1  0.93670244  0.01604329  0.66677671  1
  H  H1101  1  0.77061172  0.13295585  0.61631773  1
  C  C1102  1  0.77971767  0.00623599  0.61297093  1
  O  O1103  1  0.96891099  0.07290477  0.55620966  1
  C  C1104  1  0.95934739  0.09635234  0.51916635  1
  H  H1105  1  0.76042711  0.09165862  0.72776003  1
  C  C1106  1  0.98829464  0.04893707  0.71718859  1
  C  C1107  1  0.76767840  0.20630006  0.60419322  1
  H  H1108  1  0.78119208  0.07077681  0.65452813  1
  C  C1109  1  0.79628493  0.03540579  0.65189024  1
  C  C1110  1  0.94270476  0.03712816  0.70160663  1
  C  C1111  1  0.83203503  0.02234151  0.68767001  1
  N  N1112  1  0.80133393  0.20615613  0.56478969  1
  N  N1113  1  0.85465101  0.05729196  0.71318352  1
  H  H1114  1  0.89948714  0.08376173  0.59632180  1
  C  C1115  1  0.88685244  0.11323167  0.57434405  1
  C  C1116  1  0.90340699  0.05989855  0.72175891  1
  C  C1117  1  0.84904719  0.13728540  0.59524309  1
  H  H1118  1  0.82859006  0.13024858  0.63248950  1
  C  C1119  1  0.83669181  0.17411475  0.56016809  1
  C  C1120  1  0.91395240  0.12853608  0.53232287  1
  C  C1121  1  0.80267584  0.23649468  0.52214750  1
  C  C1122  1  0.83608740  0.09660126  0.73574552  1
  C  C1123  1  0.86610338  0.18920139  0.51569137  1
  C  C1124  1  0.97798342  0.23289860  0.69980385  1
  C  C1125  1  0.78901342  0.11251051  0.74144469  1
  C  C1126  1  0.90853816  0.16744475  0.50380701  1
  O  O1127  1  0.99185937  0.19597836  0.68988296  1
  C  C1128  1  0.74907448  0.25033963  0.61798321  1
  O  O1129  1  0.54011352  0.49817804  0.71163054  1
  C  C1130  1  0.58619373  0.25486119  0.70868923  1
  C  C1131  1  0.59985755  0.25517307  0.56594458  1
  H  H1132  1  0.55430026  0.26659575  0.68932152  1
  H  H1133  1  0.73425578  0.27129966  0.52152365  1
  H  H1134  1  0.56216462  0.46312362  0.56347770  1
  C  C1135  1  0.69602314  0.47592756  0.60333687  1
  C  C1136  1  0.50527541  0.40282281  0.57434494  1
  N  N1137  1  0.51326469  0.36320247  0.60344403  1
  C  C1138  1  0.53655548  0.28745500  0.61165130  1
  C  C1139  1  0.61501749  0.29802833  0.54822234  1
  H  H1140  1  0.59751213  0.41109718  0.63038500  1
  C  C1141  1  0.54882909  0.33221387  0.58989468  1
  C  C1142  1  0.67804975  0.38670514  0.70295303  1
  N  N1143  1  0.68955035  0.40518440  0.65400300  1
  C  C1144  1  0.66724464  0.43984223  0.62399280  1
  C  C1145  1  0.61856617  0.43825450  0.61296894  1
  C  C1146  1  0.59012419  0.33781177  0.55963959  1
  C  C1147  1  0.59878638  0.46741415  0.57504463  1
  H  H1148  1  0.54822692  0.41993338  0.67549702  1
  H  H1149  1  0.56429022  0.33444307  0.68423096  1
  C  C1150  1  0.52128891  0.40467242  0.52074466  1
  H  H1151  1  0.60128245  0.37317495  0.54698700  1
  C  C1152  1  0.71086133  0.35052837  0.71416894  1
  C  C1153  1  0.54273784  0.40207522  0.71292815  1
  C  C1154  1  0.55105149  0.35546686  0.71736448  1
  H  H1155  1  0.70098346  0.28090803  0.67317491  1
  H  H1156  1  0.64640121  0.30030294  0.52357968  1
  C  C1157  1  0.72902416  0.38471203  0.63258626  1
  H  H1158  1  0.73304271  0.48087775  0.61400420  1
  H  H1159  1  0.73725331  0.42093258  0.55588246  1
  H  H1160  1  0.62249403  0.43017821  0.73319228  1
  C  C1161  1  0.64496854  0.40024894  0.74200584  1
  C  C1162  1  0.74437416  0.35038742  0.67083512  1
  H  H1163  1  0.53216054  0.37163691  0.50661883  1
  C  C1164  1  0.99403893  0.48842975  0.50666523  1
  C  C1165  1  0.75102831  0.39524128  0.58343709  1
  H  H1166  1  0.96290148  0.48645789  0.53658849  1
  H  H1167  1  0.80581480  0.30426532  0.68942693  1
  O  O1168  1  0.96536802  0.33794674  0.52919462  1
  O  O1169  1  0.87067333  0.32605050  0.55653221  1
  C  C1170  1  0.78972841  0.36896490  0.57287867  1
  C  C1171  1  0.80516104  0.42299315  0.73265175  1
  H  H1172  1  0.80815532  0.37036667  0.53430430  1
  Cu  Cu1173  1  0.91945601  0.25399814  0.60519956  1
  H  H1174  1  0.76380098  0.28199307  0.60005303  1
  H  H1175  1  0.81825357  0.39164511  0.71128592  1
  C  C1176  1  0.83753094  0.46075284  0.61746966  1
  C  C1177  1  0.86881426  0.46076188  0.53225158  1
  O  O1178  1  0.86908873  0.28576812  0.62696058  1
  C  C1179  1  0.78831623  0.32876189  0.66316020  1
  C  C1180  1  0.76947336  0.26911361  0.50356222  1
  C  C1181  1  0.84925465  0.48963515  0.57521413  1
  H  H1182  1  0.94290538  0.31381851  0.72708530  1
  Cu  Cu1183  1  0.91372341  0.37191349  0.53561738  1
  C  C1184  1  0.98389875  0.30367393  0.55403348  1
  C  C1185  1  0.80654787  0.33858326  0.61432549  1
  C  C1186  1  0.81529777  0.48382531  0.65838086  1
  O  O1187  1  0.86801386  0.41561069  0.53812501  1
  O  O1188  1  0.95829944  0.25967874  0.66323308  1
  C  C1189  1  0.85087151  0.31801647  0.60064599  1
  O  O1190  1  0.96598198  0.26460124  0.55242727  1
  C  C1191  1  0.80124910  0.46651854  0.71017451  1
  H  H1192  1  0.84345710  0.42343731  0.61746076  1
  C  C1193  1  0.68809723  0.15011166  0.90065632  1
  C  C1194  1  0.69063758  0.17623063  0.95110684  1
  C  C1195  1  0.64352789  0.14537724  0.87484045  1
  H  H1196  1  0.61086940  0.15968907  0.89088057  1
  H  H1197  1  0.56111714  0.21302794  0.85453816  1
  C  C1198  1  0.64372569  0.12049325  0.82797921  1
  H  H1199  1  0.61000057  0.11710226  0.80830537  1
  O  O1200  1  0.54489896  0.16184046  0.79229236  1
  C  C1201  1  0.66540933  0.21825012  0.95938167  1
  C  C1202  1  0.68414264  0.09817456  0.81000858  1
  C  C1203  1  0.72809618  0.10597769  0.83579349  1
  H  H1204  1  0.69396110  0.21223506  0.80180831  1
  H  H1205  1  0.55920616  0.22472963  0.95411723  1
  H  H1206  1  0.65072857  0.23850921  0.92697009  1
  C  C1207  1  0.73150403  0.13094371  0.88172406  1
  C  C1208  1  0.66449447  0.22630517  0.77444639  1
  H  H1209  1  0.67804324  0.04279455  0.86741221  1
  N  N1210  1  0.67809210  0.08201644  0.75908921  1
  C  C1211  1  0.55397796  0.24697980  0.87227528  1
  C  C1212  1  0.50736713  0.07412538  0.75935052  1
  N  N1213  1  0.74705209  0.00900844  0.92051767  1
  C  C1214  1  0.73163427  0.00878788  0.75619904  1
  H  H1215  1  0.72148950  0.11571207  0.99067031  1
  H  H1216  1  0.74861266  0.16632648  0.77427201  1
  C  C1217  1  0.70689281  0.15035830  0.99542931  1
  C  C1218  1  0.51433037  0.14406176  0.81684516  1
  H  H1219  1  0.61964400  0.16485663  0.75812427  1
  H  H1220  1  0.62682708  0.00233513  0.80333227  1
  C  C1221  1  0.68315984  0.00751856  0.85505485  1
  Cu  Cu1222  1  0.73773884  0.24699062  0.89175902  1
  C  C1223  1  0.99227103  0.24298350  0.84192704  1
  H  H1224  1  0.75686182  0.01392839  0.78914416  1
  H  H1225  1  0.76052704  0.09193870  0.82007281  1
  O  O1226  1  0.76542565  0.22746246  0.82806774  1
  H  H1227  1  0.76575044  0.13304514  0.90267746  1
  H  H1228  1  0.80904664  0.03688941  0.83605819  1
  C  C1229  1  0.81243213  0.05182765  0.87403850  1
  C  C1230  1  0.78726695  0.05917122  0.96947583  1
  H  H1231  1  0.86591585  0.10105778  0.85116757  1
  C  C1232  1  0.84286152  0.08788725  0.88269787  1
  O  O1233  1  0.89355114  0.16713510  0.90687314  1
  C  C1234  1  0.88214348  0.14299666  0.94754468  1
  C  C1235  1  0.84638363  0.10569504  0.93348086  1
  C  C1236  1  0.82113789  0.09300666  0.97676719  1
  C  C1237  1  0.80795539  0.21840053  0.82166677  1
  C  C1238  1  0.81991157  0.17896364  0.78961982  1
  H  H1239  1  0.89231982  0.18251504  0.81111010  1
  C  C1240  1  0.86580791  0.16408531  0.78968573  1
  C  C1241  1  0.78334882  0.04012378  0.91580387  1
  H  H1242  1  0.96776781  0.13738530  0.80370752  1
  Cu  Cu1243  1  0.87505430  0.22797070  0.90333543  1
  O  O1244  1  0.88846145  0.15353038  0.99143470  1
  O  O1245  1  0.95653131  0.02257911  0.86533786  1
  C  C1246  1  0.78348380  0.15336817  0.76818798  1
  C  C1247  1  0.96837654  0.23778941  0.98655406  1
  Cu  Cu1248  1  0.99936647  0.05626644  0.90577228  1
  O  O1249  1  0.98591318  0.01147991  0.95877147  1
  C  C1250  1  0.96084027  0.10853469  0.77643726  1
  C  C1251  1  0.98420627  0.19417147  0.99922212  1
  C  C1252  1  0.99627596  0.07971175  0.75763233  1
  O  O1253  1  0.84231145  0.23906182  0.83974923  1
  C  C1254  1  0.99217061  0.22216805  0.89446848  1
  C  C1255  1  0.99896706  0.22584198  0.79135205  1
  C  C1256  1  0.91629170  0.09843403  0.75626350  1
  C  C1257  1  0.87157084  0.12183397  0.76477641  1
  C  C1258  1  0.62939439  0.25047221  0.79496550  1
  H  H1259  1  0.63010223  0.26125345  0.83714777  1
  C  C1260  1  0.55181372  0.25264509  0.92644221  1
  H  H1261  1  0.50985822  0.42873657  0.83759110  1
  C  C1262  1  0.59011262  0.26305186  0.76313577  1
  C  C1263  1  0.68498853  0.48613661  0.96679142  1
  O  O1264  1  0.52880371  0.47406602  0.91390152  1
  H  H1265  1  0.52558868  0.36771255  0.93550654  1
  C  C1266  1  0.53526706  0.33260783  0.86199019  1
  C  C1267  1  0.53066137  0.33620648  0.91675706  1
  C  C1268  1  0.54944011  0.28749185  0.84095053  1
  C  C1269  1  0.52485654  0.40833825  0.80668646  1
  C  C1270  1  0.53397480  0.36157897  0.81440575  1
  N  N1271  1  0.55785574  0.29149877  0.78755080  1
  O  O1272  1  0.65886505  0.33188020  0.88892200  1
  C  C1273  1  0.68632350  0.32513278  0.85523604  1
  H  H1274  1  0.61931977  0.38711014  0.82070907  1
  C  C1275  1  0.53873557  0.29628688  0.94517115  1
  C  C1276  1  0.54727341  0.33538514  0.76808144  1
  C  C1277  1  0.64433485  0.37843414  0.79134192  1
  C  C1278  1  0.67923860  0.34504599  0.80011480  1
  O  O1279  1  0.72535934  0.30262166  0.86696544  1
  C  C1280  1  0.71391810  0.33379084  0.76566683  1
  C  C1281  1  0.60443436  0.48290969  0.94306482  1
  C  C1282  1  0.53009551  0.42717471  0.75765196  1
  C  C1283  1  0.52228043  0.47751660  0.75030988  1
  C  C1284  1  0.56926879  0.48732128  0.90258937  1
  C  C1285  1  0.64987590  0.49546870  0.93110300  1
  H  H1286  1  0.73839563  0.30470051  0.77451930  1
  H  H1287  1  0.72103652  0.49774924  0.95802328  1
  C  C1288  1  0.59063840  0.46422930  0.99204500  1
  O  O1289  1  0.50572822  0.49994966  0.78630014  1
  O  O1290  1  0.99971389  0.46061209  0.77202503  1
  C  C1291  1  0.87419520  0.38745949  0.92506167  1
  C  C1292  1  0.95878304  0.31693110  0.81034471  1
  C  C1293  1  0.94622025  0.34241518  0.98318104  1
  C  C1294  1  0.79540864  0.41715575  0.78553608  1
  C  C1295  1  0.93825721  0.33015966  0.92873096  1
  C  C1296  1  0.76817379  0.49638808  0.79463982  1
  H  H1297  1  0.90155334  0.34730531  0.85659499  1
  C  C1298  1  0.97806952  0.25261679  0.75341125  1
  N  N1299  1  0.96339523  0.29360124  0.90727444  1
  H  H1300  1  0.76513949  0.44616914  0.85622467  1
  C  C1301  1  0.97117452  0.28807606  0.85359816  1
  C  C1302  1  0.97226024  0.25325157  0.93402061  1
  C  C1303  1  0.81113239  0.26717435  0.96352061  1
  Cu  Cu1304  1  0.77822659  0.32163224  0.90306489  1
  O  O1305  1  0.82379695  0.34141449  0.78604293  1
  C  C1306  1  0.95802030  0.29650956  0.76057177  1
  C  C1307  1  0.90341775  0.35446388  0.90091179  1
  O  O1308  1  0.77064268  0.27466685  0.94717020  1
  C  C1309  1  0.80671330  0.37251026  0.81011482  1
  C  C1310  1  0.77428992  0.45250288  0.81538505  1
  H  H1311  1  0.84575177  0.40589180  0.90434798  1
  H  H1312  1  0.95005003  0.35416689  0.81699273  1
  O  O1313  1  0.79426049  0.37098190  0.85940157  1
  O  O1314  1  0.84514560  0.27498159  0.93556112  1
  C  C1315  1  0.87893662  0.39375295  0.98047342  1
  C  C1316  1  0.63485971  0.68504103  0.10041525  1
  C  C1317  1  0.61236150  0.64383267  0.10605110  1
  C  C1318  1  0.60939262  0.61905248  0.15801270  1
  C  C1319  1  0.58205472  0.61756257  0.07165101  1
  C  C1320  1  0.56128712  0.58064838  0.10169441  1
  N  N1321  1  0.57993083  0.58223125  0.15183515  1
  C  C1322  1  0.67508082  0.56728791  0.05604227  1
  C  C1323  1  0.68127815  0.54596300  0.16506854  1
  C  C1324  1  0.57119806  0.61906543  0.01775728  1
  H  H1325  1  0.65424920  0.53708426  0.06914168  1
  C  C1326  1  0.67994322  0.54380186  0.22014266  1
  C  C1327  1  0.52750040  0.54907916  0.08031959  1
  C  C1328  1  0.66352975  0.67543521  0.18942994  1
  C  C1329  1  0.70874852  0.59131612  0.08840775  1
  C  C1330  1  0.71360462  0.57793212  0.14469588  1
  C  C1331  1  0.56913880  0.55023578  0.19181415  1
  C  C1332  1  0.66171985  0.69982166  0.14274966  1
  H  H1333  1  0.63487662  0.70271865  0.06319829  1
  C  C1334  1  0.63632250  0.63701383  0.19891421  1
  H  H1335  1  0.65511592  0.52951864  0.14154455  1
  C  C1336  1  0.51863630  0.55526287  0.02712177  1
  C  C1337  1  0.72498173  0.64991890  0.02175099  1
  C  C1338  1  0.73361386  0.63144440  0.07126797  1
  H  H1339  1  0.68482719  0.68860005  0.21836223  1
  H  H1340  1  0.69620769  0.72245325  0.02244636  1
  C  C1341  1  0.56272810  0.50393543  0.17817596  1
  H  H1342  1  0.50847670  0.52589997  0.10493944  1
  C  C1343  1  0.67123208  0.58312073  0.00430030  1
  H  H1344  1  0.63819749  0.61946429  0.23777355  1
  C  C1345  1  0.74790577  0.60013434  0.17709873  1
  H  H1346  1  0.65543195  0.52002104  0.24028808  1
  C  C1347  1  0.74574726  0.59727237  0.23111369  1
  C  C1348  1  0.57344541  0.56949487  0.24454325  1
  H  H1349  1  0.73913957  0.68405780  0.00875021  1
  C  C1350  1  0.68379734  0.74525568  0.13280106  1
  H  H1351  1  0.58497722  0.60512453  0.24858240  1
  H  H1352  1  0.77091425  0.51242202  0.03542251  1
  H  H1353  1  0.77597569  0.62125477  0.15873192  1
  H  H1354  1  0.75588421  0.65389035  0.09678528  1
  O  O1355  1  0.67489922  0.76828743  0.09512999  1
  O  O1356  1  0.70336886  0.76362218  0.17297108  1
  H  H1357  1  0.50912479  0.98490288  0.17756773  1
  O  O1358  1  0.69057253  0.96197368  0.15663652  1
  C  C1359  1  0.69552143  0.96549038  0.04682368  1
  H  H1360  1  0.66925032  0.94500579  0.06826433  1
  C  C1361  1  0.52697193  0.97623779  0.21482462  1
  Cu  Cu1362  1  0.73518036  0.92249535  0.19128342  1
  O  O1363  1  0.55883374  0.77139678  0.23088422  1
  O  O1364  1  0.71242316  0.84642008  0.22547501  1
  H  H1365  1  0.74318913  0.84370338  0.01944386  1
  C  C1366  1  0.70986982  0.99745092  0.13599623  1
  H  H1367  1  0.65997161  0.79667846  0.00786025  1
  C  C1368  1  0.51747113  0.93455827  0.24220215  1
  Cu  Cu1369  1  0.51242409  0.81529589  0.23676879  1
  Cu  Cu1370  1  0.66904468  0.79816689  0.22024149  1
  C  C1371  1  0.71778638  0.99959470  0.07720060  1
  O  O1372  1  0.90788108  0.76431163  0.19123393  1
  C  C1373  1  0.96258404  0.81599122  0.22609457  1
  O  O1374  1  0.81625971  0.93932731  0.08020767  1
  C  C1375  1  0.79277874  0.89771324  0.00437573  1
  C  C1376  1  0.92951281  0.98528522  0.21246347  1
  O  O1377  1  0.76098395  0.88637440  0.08473616  1
  C  C1378  1  0.97841059  0.86054804  0.21327068  1
  O  O1379  1  0.92520151  0.82349492  0.14062440  1
  O  O1380  1  0.83174439  0.94860458  0.22464744  1
  C  C1381  1  0.78923020  0.91150768  0.05863334  1
  H  H1382  1  0.90547500  0.92011160  0.24065773  1
  C  C1383  1  0.92914256  0.79813196  0.18523043  1
  O  O1384  1  0.88949107  0.94297348  0.14967990  1
  H  H1385  1  0.96914802  0.87769471  0.17578972  1
  O  O1386  1  0.93168526  0.81773611  0.01313154  1
  Cu  Cu1387  1  0.77978784  0.86539428  0.14571718  1
  O  O1388  1  0.85854124  0.79730580  0.00790573  1
  O  O1389  1  0.78566289  0.82720080  0.20222417  1
  Cu  Cu1390  1  0.82407095  0.94251864  0.15293454  1
  Cu  Cu1391  1  0.95261960  0.80648230  0.07890349  1
  C  C1392  1  0.91285191  0.97969722  0.16026915  1
  C  C1393  1  0.75523399  0.83692110  0.23696673  1
  C  C1394  1  0.57273255  0.58470428  0.42984978  1
  N  N1395  1  0.55099745  0.60916455  0.38856653  1
  C  C1396  1  0.57169023  0.64560712  0.36394789  1
  C  C1397  1  0.60706959  0.67776043  0.37692989  1
  H  H1398  1  0.62727829  0.67388332  0.41288830  1
  C  C1399  1  0.62206056  0.57737522  0.43259106  1
  H  H1400  1  0.64562687  0.58848674  0.40092369  1
  C  C1401  1  0.61479175  0.71451560  0.34301723  1
  C  C1402  1  0.58463869  0.72398736  0.30096082  1
  C  C1403  1  0.54038102  0.65824651  0.32091561  1
  C  C1404  1  0.54729974  0.69577821  0.28758049  1
  C  C1405  1  0.54372935  0.57099178  0.47287931  1
  C  C1406  1  0.57064356  0.54115236  0.28711370  1
  N  N1407  1  0.71463145  0.55828491  0.30762434  1
  C  C1408  1  0.64111521  0.54978600  0.47163550  1
  H  H1409  1  0.57553275  0.55473848  0.32696349  1
  C  C1410  1  0.50898548  0.69689016  0.46172929  1
  H  H1411  1  0.64580767  0.73654054  0.35020096  1
  C  C1412  1  0.71660716  0.51969492  0.38681369  1
  H  H1413  1  0.67869023  0.54341106  0.47223408  1
  C  C1414  1  0.50948145  0.59398752  0.36662293  1
  C  C1415  1  0.73025352  0.59003948  0.34337548  1
  H  H1416  1  0.73158047  0.65915006  0.30743823  1
  C  C1417  1  0.54200332  0.73507313  0.45784074  1
  C  C1418  1  0.70152966  0.51698012  0.33128602  1
  H  H1419  1  0.50964016  0.58288915  0.47119610  1
  C  C1420  1  0.74414959  0.63696014  0.33950987  1
  H  H1421  1  0.52526767  0.70227328  0.25307808  1
  C  C1422  1  0.71183151  0.56726831  0.25316995  1
  C  C1423  1  0.50123188  0.62501010  0.32222413  1
  C  C1424  1  0.73984739  0.56443988  0.39213530  1
  H  H1425  1  0.77040953  0.61351499  0.25758132  1
  C  C1426  1  0.77212156  0.65297612  0.38011409  1
  H  H1427  1  0.78470601  0.68923820  0.37901625  1
  C  C1428  1  0.77098317  0.57998628  0.42913238  1
  O  O1429  1  0.98765381  0.59119166  0.35862550  1
  C  C1430  1  0.96742636  0.51312524  0.36494346  1
  C  C1431  1  0.78834046  0.62454285  0.42084585  1
  H  H1432  1  0.78581328  0.55853377  0.45835830  1
  O  O1433  1  0.92304991  0.57484432  0.39947257  1
  C  C1434  1  0.95937890  0.56184218  0.37623235  1
  C  C1435  1  0.82903848  0.63951928  0.45462962  1
  Cu  Cu1436  1  0.90565309  0.57855513  0.46712281  1
  O  O1437  1  0.84090356  0.67849850  0.45249813  1
  Cu  Cu1438  1  0.98441391  0.65324216  0.36027707  1
  C  C1439  1  0.97703188  0.74347206  0.40491970  1
  O  O1440  1  0.97584341  0.71840102  0.36300296  1
  O  O1441  1  0.84879439  0.60957054  0.48550073  1
  C  C1442  1  0.50197926  0.79663313  0.34255079  1
  C  C1443  1  0.58827716  0.76427727  0.26674107  1
  H  H1444  1  0.51633205  0.96294446  0.38232971  1
  C  C1445  1  0.50344457  0.75997177  0.38454595  1
  H  H1446  1  0.52468525  0.89108662  0.31291542  1
  C  C1447  1  0.57855876  0.99666085  0.28409591  1
  C  C1448  1  0.53980066  0.77048276  0.42085324  1
  O  O1449  1  0.62218341  0.79010123  0.27602260  1
  H  H1450  1  0.56301507  0.80297677  0.41972148  1
  C  C1451  1  0.62993322  0.98632446  0.35555424  1
  C  C1452  1  0.60214204  0.91467457  0.39628461  1
  C  C1453  1  0.59829125  0.94705586  0.35579103  1
  C  C1454  1  0.56646654  0.95379816  0.30986654  1
  H  H1455  1  0.57891758  0.88502839  0.40055366  1
  C  C1456  1  0.67259568  0.95509406  0.42814714  1
  C  C1457  1  0.63964276  0.92004393  0.43211615  1
  C  C1458  1  0.66819784  0.99011964  0.39240260  1
  H  H1459  1  0.70234617  0.95268484  0.45705118  1
  C  C1460  1  0.53240595  0.92414867  0.29216396  1
  H  H1461  1  0.70142036  0.86796174  0.31623546  1
  C  C1462  1  0.64515586  0.88738430  0.47553062  1
  O  O1463  1  0.51799927  0.83397811  0.35242276  1
  H  H1464  1  0.73010278  0.87462030  0.41062104  1
  O  O1465  1  0.61014965  0.86526559  0.48746497  1
  C  C1466  1  0.73765693  0.85911073  0.32651392  1
  O  O1467  1  0.55212121  0.99321649  0.46011199  1
  H  H1468  1  0.74911769  0.97748720  0.34301613  1
  H  H1469  1  0.62629108  0.78445395  0.49342532  1
  C  C1470  1  0.78206013  0.99340419  0.34359034  1
  C  C1471  1  0.80620628  0.87450373  0.48471339  1
  H  H1472  1  0.95788906  0.75747020  0.27575659  1
  C  C1473  1  0.82957729  0.82971748  0.35119920  1
  C  C1474  1  0.87040173  0.83909488  0.43274852  1
  C  C1475  1  0.91083082  0.79031124  0.36814267  1
  C  C1476  1  0.94238163  0.95458770  0.30282219  1
  C  C1477  1  0.96218648  0.99802772  0.31507736  1
  C  C1478  1  0.81649576  0.82598381  0.30069344  1
  H  H1479  1  0.91126498  0.95896530  0.38635151  1
  H  H1480  1  0.94761382  0.92472324  0.33001428  1
  C  C1481  1  0.93714507  0.96515921  0.41671742  1
  C  C1482  1  0.79462215  0.92212068  0.47982374  1
  H  H1483  1  0.79816732  0.93950071  0.43974098  1
  O  O1484  1  0.76057633  0.93862522  0.25642524  1
  H  H1485  1  0.91502286  0.77381295  0.32927717  1
  C  C1486  1  0.87312959  0.81975717  0.37884426  1
  C  C1487  1  0.97216812  0.79127180  0.27131313  1
  C  C1488  1  0.97501125  0.99529249  0.41005349  1
  C  C1489  1  0.75306186  0.86197491  0.37855524  1
  C  C1490  1  0.79922011  0.85004800  0.39274541  1
  N  N1491  1  0.82431604  0.85367349  0.43866225  1
  C  C1492  1  0.81315430  0.98860746  0.30088292  1
  C  C1493  1  0.80118580  0.95559392  0.25884267  1
  C  C1494  1  0.94089060  0.80044265  0.45839558  1
  C  C1495  1  0.77102053  0.84168670  0.28884864  1
  C  C1496  1  0.92714458  0.94590630  0.46414051  1
  H  H1497  1  0.89654789  0.92495008  0.46630987  1
  C  C1498  1  0.94220798  0.78078175  0.40983521  1
  C  C1499  1  0.90580082  0.83367529  0.46899117  1
  H  H1500  1  0.83927390  0.81468987  0.26754205  1
  H  H1501  1  0.96636584  0.79089554  0.48692003  1
  C  C1502  1  0.92271573  0.95267621  0.25240584  1
  C  C1503  1  0.56108261  0.69488465  0.59420121  1
  C  C1504  1  0.59861340  0.72243756  0.60772313  1
  H  H1505  1  0.54081596  0.67298502  0.62256882  1
  H  H1506  1  0.55272808  0.61071989  0.56662860  1
  C  C1507  1  0.54641816  0.69924164  0.54089175  1
  O  O1508  1  0.66590428  0.63236341  0.69959767  1
  N  N1509  1  0.51210144  0.67695723  0.51109736  1
  Cu  Cu1510  1  0.71497716  0.67168844  0.69384610  1
  H  H1511  1  0.61379309  0.71641976  0.64519177  1
  Cu  Cu1512  1  0.59502242  0.53112231  0.71695670  1
  O  O1513  1  0.65397957  0.55922590  0.71833585  1
  C  C1514  1  0.51454140  0.60890319  0.56439727  1
  C  C1515  1  0.56987942  0.68537975  0.71816140  1
  O  O1516  1  0.56488901  0.58922010  0.71291279  1
  H  H1517  1  0.69740055  0.53557344  0.55613769  1
  H  H1518  1  0.59878077  0.66408020  0.70753153  1
  H  H1519  1  0.54125817  0.53017073  0.54422484  1
  C  C1520  1  0.56169475  0.54293106  0.51220190  1
  C  C1521  1  0.61062773  0.53175865  0.51098005  1
  C  C1522  1  0.57064954  0.73201191  0.50696513  1
  C  C1523  1  0.57272517  0.73430194  0.71781024  1
  H  H1524  1  0.50620053  0.55856279  0.62546835  1
  C  C1525  1  0.67681086  0.50750819  0.56935949  1
  C  C1526  1  0.65927792  0.60045199  0.73289976  1
  C  C1527  1  0.53216984  0.66112335  0.73424724  1
  C  C1528  1  0.53521890  0.60955404  0.74027313  1
  C  C1529  1  0.63015448  0.50041194  0.55250135  1
  H  H1530  1  0.94137674  0.67724719  0.67622515  1
  C  C1531  1  0.80867794  0.53282041  0.66301910  1
  C  C1532  1  0.81807285  0.55813568  0.61736337  1
  H  H1533  1  0.80572271  0.59248361  0.61076407  1
  N  N1534  1  0.78970825  0.54323777  0.71385200  1
  H  H1535  1  0.84724135  0.70882501  0.68606635  1
  O  O1536  1  0.76493870  0.71340508  0.68205917  1
  C  C1537  1  0.96336734  0.70715529  0.67362838  1
  C  C1538  1  0.83315725  0.61198051  0.72195597  1
  H  H1539  1  0.85401538  0.60192241  0.68925540  1
  H  H1540  1  0.83936346  0.55699495  0.53979702  1
  C  C1541  1  0.83700165  0.53564005  0.57463252  1
  C  C1542  1  0.79358311  0.58565289  0.73782574  1
  O  O1543  1  0.94122579  0.56817207  0.52161027  1
  C  C1544  1  0.85253772  0.74502331  0.69017721  1
  H  H1545  1  0.87159811  0.67333122  0.73335642  1
  C  C1546  1  0.84335545  0.65263403  0.74752767  1
  C  C1547  1  0.77982219  0.50408424  0.74161598  1
  C  C1548  1  0.98511697  0.57516443  0.51852292  1
  H  H1549  1  0.50225422  0.77991774  0.64332730  1
  C  C1550  1  0.62072481  0.75293188  0.57188464  1
  H  H1551  1  0.60163560  0.75131851  0.69973258  1
  C  C1552  1  0.60605394  0.76172137  0.52150030  1
  C  C1553  1  0.53398852  0.75985415  0.73728933  1
  C  C1554  1  0.50206237  0.82286058  0.54610803  1
  C  C1555  1  0.52944347  0.99725540  0.66991822  1
  C  C1556  1  0.67816635  0.98969100  0.66470916  1
  O  O1557  1  0.67077824  0.77304209  0.64096520  1
  C  C1558  1  0.66024899  0.77753090  0.59300716  1
  H  H1559  1  0.65541816  0.98066052  0.63016886  1
  C  C1560  1  0.70543526  0.95544437  0.68779050  1
  Cu  Cu1561  1  0.58483860  0.86700175  0.55607744  1
  O  O1562  1  0.55021212  0.92621179  0.55532051  1
  O  O1563  1  0.58520310  0.98708336  0.57039936  1
  Cu  Cu1564  1  0.67600433  0.86559372  0.57031096  1
  O  O1565  1  0.67423072  0.90003348  0.63372166  1
  C  C1566  1  0.55617584  0.95751343  0.58697951  1
  O  O1567  1  0.53666497  0.83042937  0.57528947  1
  O  O1568  1  0.68238648  0.80497975  0.56335819  1
  Cu  Cu1569  1  0.70847117  0.81685351  0.67495210  1
  C  C1570  1  0.70164981  0.90814607  0.66930613  1
  C  C1571  1  0.52875444  0.95855286  0.63645085  1
  O  O1572  1  0.72431004  0.87484780  0.69103717  1
  C  C1573  1  0.73424194  0.96619550  0.73137604  1
  O  O1574  1  0.68052087  0.88593738  0.50347146  1
  O  O1575  1  0.73369146  0.77482804  0.71923637  1
  Cu  Cu1576  1  0.50434010  0.91352616  0.50119635  1
  H  H1577  1  0.61232932  0.79803945  0.73792253  1
  N  N1578  1  0.52456105  0.80529966  0.74860027  1
  C  C1579  1  0.76898821  0.75324589  0.70228683  1
  C  C1580  1  0.94430722  0.75108608  0.67814376  1
  C  C1581  1  0.97116840  0.79257235  0.67623883  1
  C  C1582  1  0.83496663  0.94630328  0.64961767  1
  C  C1583  1  0.79765718  0.96109115  0.61538869  1
  H  H1584  1  0.79851652  0.85886919  0.61744702  1
  C  C1585  1  0.81847720  0.81850752  0.71942738  1
  C  C1586  1  0.90514135  0.87559573  0.61582976  1
  C  C1587  1  0.79131447  0.92428562  0.57421185  1
  C  C1588  1  0.98524110  0.92273961  0.59642645  1
  H  H1589  1  0.78677179  0.83447821  0.73275539  1
  H  H1590  1  0.87062745  0.86090627  0.62385177  1
  H  H1591  1  0.87579597  0.96572281  0.71624035  1
  C  C1592  1  0.90904471  0.89974543  0.57050179  1
  C  C1593  1  0.79806499  0.87577600  0.57879532  1
  C  C1594  1  0.78990138  0.94812607  0.52526503  1
  H  H1595  1  0.90241768  0.84843557  0.50706289  1
  H  H1596  1  0.78552713  0.98505208  0.52020809  1
  C  C1597  1  0.85182346  0.97650014  0.68643303  1
  H  H1598  1  0.87592564  0.90313446  0.54657962  1
  C  C1599  1  0.89819555  0.81551487  0.70230324  1
  H  H1600  1  0.80746384  0.81159044  0.53493211  1
  C  C1601  1  0.80531529  0.84965568  0.53402813  1
  C  C1602  1  0.98369288  0.89658049  0.64213443  1
  C  C1603  1  0.94335825  0.86981924  0.65251383  1
  C  C1604  1  0.89463992  0.76620462  0.69153122  1
  N  N1605  1  0.94145349  0.83124699  0.68366760  1
  H  H1606  1  0.86399057  0.88034687  0.72654534  1
  C  C1607  1  0.95087912  0.92438517  0.55638255  1
  C  C1608  1  0.81485018  0.77266279  0.70435226  1
  C  C1609  1  0.86019674  0.84297400  0.71816302  1
  C  C1610  1  0.95848919  0.95125089  0.50741944  1
  H  H1611  1  0.84913744  0.90978629  0.64868301  1
  H  H1612  1  0.75584625  0.94068753  0.74973346  1
  C  C1613  1  0.99863538  0.98242523  0.50293053  1
  C  C1614  1  0.66963090  0.66596071  0.85602370  1
  C  C1615  1  0.66493773  0.65519162  0.80354919  1
  C  C1616  1  0.54044484  0.59270800  0.93642925  1
  C  C1617  1  0.66289854  0.60868809  0.78825749  1
  C  C1618  1  0.67744276  0.62713535  0.89335365  1
  C  C1619  1  0.67705326  0.69374998  0.94252066  1
  H  H1620  1  0.66178960  0.68241489  0.77437212  1
  N  N1621  1  0.68226654  0.64671552  0.94183063  1
  C  C1622  1  0.66351638  0.57202902  0.82469758  1
  H  H1623  1  0.65222157  0.53887400  0.81150244  1
  C  C1624  1  0.67724002  0.58139268  0.87609177  1
  C  C1625  1  0.66449728  0.70733151  0.88839923  1
  Cu  Cu1626  1  0.54210592  0.54861819  0.81866695  1
  H  H1627  1  0.68602353  0.55266565  0.90438512  1
  O  O1628  1  0.56482349  0.62052828  0.91727277  1
  O  O1629  1  0.51165445  0.58986082  0.77305329  1
  O  O1630  1  0.57698059  0.50491746  0.85755050  1
  H  H1631  1  0.66029289  0.51095894  0.89397798  1
  H  H1632  1  0.64795694  0.56418305  0.97522663  1
  H  H1633  1  0.72653490  0.58463302  0.78448357  1
  H  H1634  1  0.74558108  0.72823495  0.80882769  1
  O  O1635  1  0.51179824  0.56838856  0.90897155  1
  C  C1636  1  0.69475698  0.62436589  0.98939707  1
  C  C1637  1  0.67967048  0.72640773  0.98331156  1
  C  C1638  1  0.54283635  0.58671634  0.99603663  1
  H  H1639  1  0.59106119  0.64143045  0.98923969  1
  H  H1640  1  0.75291531  0.64633905  0.84069943  1
  H  H1641  1  0.75676950  0.52518391  0.81789639  1
  H  H1642  1  0.99000821  0.70344032  0.79010470  1
  O  O1643  1  0.77183443  0.50921882  0.90169630  1
  O  O1644  1  0.76028921  0.55985253  0.96154162  1
  H  H1645  1  0.90757260  0.56731916  0.80670848  1
  C  C1646  1  0.78071132  0.54409140  0.92453354  1
  C  C1647  1  0.88732858  0.57944283  0.83870041  1
  C  C1648  1  0.82082880  0.57431515  0.89689396  1
  C  C1649  1  0.87134681  0.64009322  0.90604564  1
  C  C1650  1  0.89165291  0.68341838  0.91983934  1
  C  C1651  1  0.93821262  0.68490463  0.89296361  1
  N  N1652  1  0.93821352  0.64973236  0.85775120  1
  C  C1653  1  0.89939303  0.62185155  0.86197960  1
  C  C1654  1  0.84734586  0.55553274  0.85604728  1
  C  C1655  1  0.81959116  0.71336982  0.81039986  1
  C  C1656  1  0.83103939  0.61517391  0.92318860  1
  H  H1657  1  0.81045518  0.62409519  0.95684116  1
  C  C1658  1  0.87715840  0.72349922  0.94504502  1
  C  C1659  1  0.77182113  0.64104257  0.80280708  1
  C  C1660  1  0.81168300  0.66643641  0.78881201  1
  H  H1661  1  0.89632142  0.70801372  0.81019774  1
  C  C1662  1  0.86641988  0.72887005  0.82034888  1
  C  C1663  1  0.77905789  0.74046716  0.82163628  1
  C  C1664  1  0.97163418  0.71996058  0.90202455  1
  H  H1665  1  0.97329559  0.56403233  0.84186821  1
  C  C1666  1  0.98068385  0.63871439  0.83175268  1
  H  H1667  1  0.84194071  0.72937684  0.95912154  1
  C  C1668  1  0.75995344  0.60199838  0.77590909  1
  H  H1669  1  0.84269525  0.52077473  0.83929802  1
  C  C1670  1  0.99811979  0.59424258  0.83938305  1
  O  O1671  1  0.51129124  0.84558981  0.91861513  1
  C  C1672  1  0.64942426  0.75222620  0.88112622  1
  H  H1673  1  0.63890384  0.76464839  0.84333851  1
  C  C1674  1  0.64747924  0.78146000  0.92539018  1
  Cu  Cu1675  1  0.55291403  0.79653405  0.84083089  1
  Cu  Cu1676  1  0.54646490  0.87710609  0.86472709  1
  C  C1677  1  0.62354746  0.82513745  0.92033282  1
  O  O1678  1  0.59699856  0.83393102  0.87302833  1
  C  C1679  1  0.66170061  0.93628756  0.81184079  1
  C  C1680  1  0.62573689  0.90854294  0.78428331  1
  C  C1681  1  0.65347975  0.98322995  0.82285579  1
  H  H1682  1  0.69072389  0.93804491  0.96833067  1
  O  O1683  1  0.62072420  0.85135089  0.95478629  1
  C  C1684  1  0.70143828  0.91246305  0.83272417  1
  H  H1685  1  0.70545431  0.87475021  0.83288456  1
  C  C1686  1  0.72127379  0.98503988  0.88068512  1
  C  C1687  1  0.66466657  0.77186075  0.97530114  1
  C  C1688  1  0.57684505  0.92135243  0.77770118  1
  O  O1689  1  0.50024180  0.78322231  0.87595667  1
  C  C1690  1  0.63938923  0.86440048  0.76453287  1
  H  H1691  1  0.67527071  0.85492939  0.76011930  1
  C  C1692  1  0.60433924  0.83278261  0.75201746  1
  H  H1693  1  0.56676570  0.95533370  0.78852501  1
  C  C1694  1  0.73387687  0.93982383  0.86001565  1
  C  C1695  1  0.73407726  0.99781923  0.97071348  1
  C  C1696  1  0.70472967  0.96478704  0.99291136  1
  H  H1697  1  0.51006827  0.90612330  0.75744784  1
  C  C1698  1  0.55610488  0.84218464  0.75155039  1
  C  C1699  1  0.54484634  0.89016119  0.75883586  1
  H  H1700  1  0.97640429  0.78535101  0.94522890  1
  C  C1701  1  0.90595428  0.87343630  0.81196501  1
  C  C1702  1  0.91190729  0.75631143  0.95533901  1
  C  C1703  1  0.86851212  0.91506170  0.88470117  1
  C  C1704  1  0.83339215  0.90176946  0.92479446  1
  H  H1705  1  0.75698598  0.80740324  0.84363029  1
  H  H1706  1  0.76700199  0.92443613  0.87081778  1
  H  H1707  1  0.90888970  0.78108955  0.86131009  1
  C  C1708  1  0.93119692  0.94918810  0.84003967  1
  C  C1709  1  0.95648264  0.75493915  0.93457408  1
  C  C1710  1  0.81247367  0.85632993  0.91239667  1
  H  H1711  1  0.91349510  0.84092020  0.78934658  1
  C  C1712  1  0.76584154  0.85862590  0.98891969  1
  C  C1713  1  0.89652241  0.95440630  0.87766970  1
  H  H1714  1  0.76794560  0.79888159  0.93826827  1
  H  H1715  1  0.96714324  0.90654314  0.78136637  1
  C  C1716  1  0.87351147  0.77058226  0.84523368  1
  H  H1717  1  0.83929409  0.95407810  0.98436656  1
  C  C1718  1  0.93764323  0.90909852  0.80955886  1
  C  C1719  1  0.82348454  0.92254994  0.97257232  1
  C  C1720  1  0.83273354  0.79810337  0.84990848  1
  C  C1721  1  0.96365322  0.98717296  0.83784675  1
  C  C1722  1  0.78611908  0.78464764  0.83880071  1
  H  H1723  1  0.89313930  0.98347094  0.90371495  1
  C  C1724  1  0.77923656  0.83481241  0.94506389  1
  C  C1725  1  0.86905512  0.87522450  0.85035987  1
  N  N1726  1  0.83546759  0.84431422  0.86713790  1
  C  C1727  1  0.89750882  0.79234405  0.99444421  1
