# generated using pymatgen
data_Cu6H9C27N12O13
_symmetry_space_group_name_H-M   'P 1'
_cell_length_a   34.56681473
_cell_length_b   26.57377227
_cell_length_c   34.31053177
_cell_angle_alpha   90.00000000
_cell_angle_beta   90.00000000
_cell_angle_gamma   90.00000000
_symmetry_Int_Tables_number   1
_chemical_formula_structural   Cu6H9C27N12O13
_chemical_formula_sum   'Cu192 H288 C864 N384 O416'
_cell_volume   31516.64790814
_cell_formula_units_Z   32
loop_
 _symmetry_equiv_pos_site_id
 _symmetry_equiv_pos_as_xyz
  1  'x, y, z'
loop_
 _atom_site_type_symbol
 _atom_site_label
 _atom_site_symmetry_multiplicity
 _atom_site_fract_x
 _atom_site_fract_y
 _atom_site_fract_z
 _atom_site_occupancy
  C  C0  1  0.14609236  0.06443754  0.06778448  1
  C  C1  1  0.09887972  0.04711883  0.11625713  1
  C  C2  1  0.13875268  0.11691518  0.06935872  1
  H  H3  1  0.15644414  0.14375744  0.05270618  1
  C  C4  1  0.09067767  0.09928631  0.11865099  1
  C  C5  1  0.11134025  0.13265940  0.09486306  1
  H  H6  1  0.07032909  0.11309941  0.14024831  1
  Cu  Cu7  1  0.14875830  0.12508246  0.17245355  1
  N  N8  1  0.17054069  0.19555035  0.17853277  1
  C  C9  1  0.19192028  0.21296339  0.15632194  1
  C  C10  1  0.22012166  0.23417327  0.13022751  1
  N  N11  1  0.08964578  0.13992401  0.19329503  1
  C  C12  1  0.10537613  0.18990393  0.10096857  1
  O  O13  1  0.08373387  0.20033374  0.13007973  1
  C  C14  1  0.05977690  0.13137107  0.20635641  1
  O  O15  1  0.11690944  0.22038476  0.07874431  1
  Cu  Cu16  1  0.20496514  0.16455737  0.22467831  1
  Cu  Cu17  1  0.11033162  0.20985616  0.17908403  1
  N  N18  1  0.20932558  0.09304341  0.14511783  1
  N  N19  1  0.16284643  0.10700574  0.22429383  1
  C  C20  1  0.17509111  0.04637070  0.03999878  1
  C  C21  1  0.02191178  0.11999376  0.22392775  1
  C  C22  1  0.12711672  0.02902067  0.08896402  1
  Cu  Cu23  1  0.11131333  0.07873673  0.22804608  1
  C  C24  1  0.03155596  0.04996091  0.03199632  1
  N  N25  1  0.22976284  0.10501237  0.11741994  1
  C  C26  1  0.01364652  0.09697622  0.05152087  1
  C  C27  1  0.01925377  0.13878004  0.02757822  1
  Cu  Cu28  1  0.20506249  0.05948722  0.23046644  1
  O  O29  1  0.19281582  0.07896588  0.01973492  1
  N  N30  1  0.23681578  0.08380462  0.18644637  1
  C  C31  1  0.01020308  0.23223938  0.01636261  1
  C  C32  1  0.07480301  0.01100702  0.13761626  1
  C  C33  1  0.00510408  0.18460210  0.04243228  1
  H  H34  1  0.00902449  0.04165745  0.20465260  1
  O  O35  1  0.18199915  0.00098900  0.03675255  1
  O  O36  1  0.02797001  0.00591645  0.04808209  1
  O  O37  1  0.20924289  0.24158807  0.24891828  1
  C  C38  1  0.01027474  0.16116687  0.24761571  1
  O  O39  1  0.04634948  0.05300862  0.00129290  1
  C  C40  1  0.42836325  0.01042794  0.20487315  1
  O  O41  1  0.41428212  0.01479736  0.17022420  1
  C  C42  1  0.42965585  0.00545961  0.04982531  1
  H  H43  1  0.49067482  0.19059355  0.03901401  1
  C  C44  1  0.26126981  0.22824028  0.13507388  1
  Cu  Cu45  1  0.43873496  0.04040095  0.12827389  1
  C  C46  1  0.36136344  0.01374243  0.03515140  1
  C  C47  1  0.29001493  0.02659303  0.02409801  1
  N  N48  1  0.27452696  0.10785538  0.13656622  1
  H  H49  1  0.36163522  0.04735265  0.05431699  1
  H  H50  1  0.27292141  0.21258526  0.16282922  1
  C  C51  1  0.27278914  0.09447761  0.17376366  1
  O  O52  1  0.42395428  0.03979435  0.07457039  1
  O  O53  1  0.40908400  0.18674733  0.17633924  1
  C  C54  1  0.40895533  0.15807574  0.20718629  1
  C  C55  1  0.37444925  0.12379633  0.21259705  1
  C  C56  1  0.34358461  0.12326011  0.18557657  1
  H  H57  1  0.34230792  0.14423173  0.15797857  1
  C  C58  1  0.31150936  0.09382249  0.19834247  1
  O  O59  1  0.29021060  0.06553200  0.04057828  1
  O  O60  1  0.43437401  0.16271290  0.23062340  1
  C  C61  1  0.31257304  0.06617515  0.23313955  1
  O  O62  1  0.47472599  0.15618079  0.11141262  1
  O  O63  1  0.25827429  0.00625163  0.01103172  1
  C  C64  1  0.48745902  0.11797013  0.09974254  1
  O  O65  1  0.48435434  0.07593505  0.11933800  1
  H  H66  1  0.28416038  0.04778608  0.23984149  1
  O  O67  1  0.45468623  0.03428094  0.21738916  1
  O  O68  1  0.33594867  0.22335456  0.15211730  1
  C  C69  1  0.32698776  0.24039467  0.11622496  1
  C  C70  1  0.28457137  0.24546499  0.10618160  1
  Cu  Cu71  1  0.38093167  0.24567825  0.17929093  1
  O  O72  1  0.35203028  0.24822284  0.09376281  1
  C  C73  1  0.37681616  0.09998895  0.24907287  1
  C  C74  1  0.20453999  0.25774861  0.09632833  1
  N  N75  1  0.07534737  0.25802350  0.22383611  1
  N  N76  1  0.10916781  0.25949076  0.23372351  1
  H  H77  1  0.17390939  0.26456832  0.09323883  1
  C  C78  1  0.20443322  0.49556446  0.12621890  1
  C  C79  1  0.11649610  0.47386227  0.22734628  1
  C  C80  1  0.23194660  0.27434940  0.06955934  1
  Cu  Cu81  1  0.16609958  0.27172046  0.20122002  1
  O  O82  1  0.18111466  0.31286170  0.03619187  1
  C  C83  1  0.21776233  0.30532377  0.03554185  1
  C  C84  1  0.05315826  0.42426669  0.22228306  1
  H  H85  1  0.05008471  0.35930545  0.20657106  1
  C  C86  1  0.15337675  0.43480930  0.11903753  1
  N  N87  1  0.16985069  0.33570552  0.17913537  1
  N  N88  1  0.21658306  0.35879228  0.18025613  1
  N  N89  1  0.14462694  0.34180691  0.13428745  1
  O  O90  1  0.17272538  0.41058637  0.02838441  1
  C  C91  1  0.14494081  0.38195007  0.12173986  1
  C  C92  1  0.19044942  0.44982467  0.13594556  1
  H  H93  1  0.11215381  0.45837163  0.07320989  1
  C  C94  1  0.13617832  0.46791777  0.09155406  1
  Cu  Cu95  1  0.14034725  0.36156210  0.21562178  1
  H  H96  1  0.22072900  0.39413934  0.08444211  1
  H  H97  1  0.20792360  0.42482930  0.15308059  1
  C  C98  1  0.23951775  0.44052002  0.03274192  1
  O  O99  1  0.13336964  0.45412944  0.20168626  1
  O  O100  1  0.07063778  0.38671480  0.20077204  1
  C  C101  1  0.03124980  0.44989369  0.06071296  1
  N  N102  1  0.23513578  0.34486299  0.15181307  1
  C  C103  1  0.07410379  0.46813943  0.23417918  1
  Cu  Cu104  1  0.23494998  0.40157573  0.23156809  1
  O  O105  1  0.05011948  0.42223856  0.04181758  1
  C  C106  1  0.01450722  0.42091594  0.23761828  1
  C  C107  1  0.24513141  0.41536054  0.06785716  1
  C  C108  1  0.20073135  0.43790788  0.01342494  1
  O  O109  1  0.23775949  0.31954068  0.00833981  1
  O  O110  1  0.04234926  0.49390465  0.07312061  1
  Cu  Cu111  1  0.15139003  0.36075770  0.00431643  1
  N  N112  1  0.00329493  0.32732568  0.23232624  1
  N  N113  1  0.05261105  0.30681200  0.24843728  1
  O  O114  1  0.47395345  0.48233023  0.03911104  1
  C  C115  1  0.44795958  0.28678866  0.14005776  1
  C  C116  1  0.49940748  0.28073104  0.09036795  1
  O  O117  1  0.41623920  0.44671786  0.21050782  1
  C  C118  1  0.26834383  0.46721209  0.01177661  1
  O  O119  1  0.25611217  0.47752823  0.17266398  1
  O  O120  1  0.41284872  0.29064959  0.15011842  1
  N  N121  1  0.38564164  0.28732861  0.23399873  1
  C  C122  1  0.27160201  0.26861303  0.07245703  1
  N  N123  1  0.34090008  0.33963995  0.16387215  1
  N  N124  1  0.31030283  0.34135111  0.18145870  1
  Cu  Cu125  1  0.30791263  0.45085534  0.18541206  1
  C  C126  1  0.29679680  0.38664566  0.11736703  1
  C  C127  1  0.31315546  0.43507404  0.05881840  1
  C  C128  1  0.43364183  0.30279601  0.06876884  1
  O  O129  1  0.39268405  0.34025788  0.00179945  1
  C  C130  1  0.48818496  0.46086812  0.11285104  1
  C  C131  1  0.30604309  0.46233058  0.02443058  1
  C  C132  1  0.46008907  0.29108244  0.09733217  1
  C  C133  1  0.28308543  0.41206694  0.07876141  1
  N  N134  1  0.46832986  0.37583404  0.18676572  1
  C  C135  1  0.48742787  0.29160960  0.02167736  1
  Cu  Cu136  1  0.48687951  0.30986794  0.21042105  1
  O  O137  1  0.35438724  0.43097549  0.21020216  1
  H  H138  1  0.34336026  0.43275399  0.07055813  1
  N  N139  1  0.28483812  0.44033899  0.23765070  1
  N  N140  1  0.27918480  0.37698940  0.15335923  1
  O  O141  1  0.47189113  0.27610403  0.16558418  1
  H  H142  1  0.45704403  0.46529506  0.00116463  1
  N  N143  1  0.33252969  0.36907631  0.11916566  1
  C  C144  1  0.38319883  0.45614631  0.22412370  1
  H  H145  1  0.46666116  0.43625394  0.09914699  1
  Cu  Cu146  1  0.43427478  0.38826446  0.23482572  1
  C  C147  1  0.48423468  0.40738146  0.17071052  1
  C  C148  1  0.44932736  0.30580607  0.03071437  1
  H  H149  1  0.29230105  0.28224015  0.04985890  1
  H  H150  1  0.40342651  0.31074808  0.07165189  1
  N  N151  1  0.11124566  0.08357207  0.28187854  1
  Cu  Cu152  1  0.16113318  0.11705825  0.28422969  1
  C  C153  1  0.05024147  0.10043709  0.31426054  1
  N  N154  1  0.07374514  0.12086819  0.29578069  1
  N  N155  1  0.20974792  0.15092607  0.28008540  1
  O  O156  1  0.17993474  0.04227524  0.38355422  1
  C  C157  1  0.20625594  0.06275611  0.40625481  1
  O  O158  1  0.19755104  0.09720750  0.42859441  1
  O  O159  1  0.20272463  0.19512972  0.36288851  1
  O  O160  1  0.19699282  0.21410625  0.44589511  1
  O  O161  1  0.14684678  0.18120822  0.33740073  1
  C  C162  1  0.16824884  0.20920254  0.35337858  1
  H  H163  1  0.02971985  0.12356844  0.38633990  1
  C  C164  1  0.02103460  0.07390935  0.33718683  1
  Cu  Cu165  1  0.20322972  0.16196081  0.41153558  1
  N  N166  1  0.10873180  0.02433300  0.30162866  1
  C  C167  1  0.22513858  0.23073939  0.46696606  1
  Cu  Cu168  1  0.23110973  0.21828992  0.29749880  1
  N  N169  1  0.24115679  0.06438710  0.27536855  1
  H  H170  1  0.19672435  0.13698646  0.48862506  1
  O  O171  1  0.05527905  0.15868059  0.49956681  1
  N  N172  1  0.24615969  0.10641014  0.28955404  1
  C  C173  1  0.01553849  0.08813762  0.37638107  1
  H  H174  1  0.00169415  0.02105050  0.28964532  1
  H  H175  1  0.08977448  0.23527635  0.48437747  1
  C  C176  1  0.00265291  0.03194081  0.32018915  1
  N  N177  1  0.13959642  0.00526052  0.30843703  1
  H  H178  1  0.02980323  0.19351676  0.25263772  1
  C  C179  1  0.24303986  0.03585050  0.40838015  1
  O  O180  1  0.00481300  0.11788941  0.45214281  1
  H  H181  1  0.09487053  0.24836382  0.37476638  1
  Cu  Cu182  1  0.15293300  0.00236972  0.49938699  1
  Cu  Cu183  1  0.27268407  0.00127885  0.29202495  1
  N  N184  1  0.49904006  0.10746136  0.27614767  1
  H  H185  1  0.25710005  0.06491499  0.46633055  1
  C  C186  1  0.34128257  0.05852540  0.30268729  1
  O  O187  1  0.30662539  0.13911714  0.41476493  1
  O  O188  1  0.42733138  0.04174481  0.45547257  1
  O  O189  1  0.34725603  0.13175704  0.46600405  1
  C  C190  1  0.32872787  0.21417589  0.44526781  1
  N  N191  1  0.43188410  0.18252267  0.44008620  1
  O  O192  1  0.36951913  0.05869883  0.32322798  1
  Cu  Cu193  1  0.38866306  0.08842700  0.46047792  1
  C  C194  1  0.32714651  0.15810504  0.43956451  1
  C  C195  1  0.46341462  0.04872831  0.45275090  1
  C  C196  1  0.26585645  0.04130003  0.44207231  1
  C  C197  1  0.35019485  0.23575439  0.47654754  1
  H  H198  1  0.29215722  0.23193174  0.39459796  1
  O  O199  1  0.48003357  0.05354088  0.42048315  1
  O  O200  1  0.30742642  0.04296214  0.31629025  1
  C  C201  1  0.32248681  0.00918301  0.48520642  1
  N  N202  1  0.42929323  0.22672010  0.44979185  1
  C  C203  1  0.48606483  0.04885859  0.48895344  1
  H  H204  1  0.40185060  0.10552198  0.26961280  1
  C  C205  1  0.34428579  0.07067481  0.25980455  1
  N  N206  1  0.35433472  0.03611497  0.48995893  1
  N  N207  1  0.49127578  0.06041412  0.33438921  1
  N  N208  1  0.47845146  0.10019274  0.32105368  1
  C  C209  1  0.29808788  0.01008488  0.44630004  1
  N  N210  1  0.43613117  0.14931609  0.48430783  1
  H  H211  1  0.36560471  0.20967282  0.49718101  1
  C  C212  1  0.31007364  0.24655436  0.41954410  1
  Cu  Cu213  1  0.47177089  0.01346270  0.38021579  1
  N  N214  1  0.43146824  0.22803408  0.49920227  1
  H  H215  1  0.00334909  0.35898513  0.30775707  1
  Cu  Cu216  1  0.18090650  0.49585607  0.27913789  1
  H  H217  1  0.04908014  0.48853367  0.36893869  1
  C  C218  1  0.15772531  0.26278553  0.36675347  1
  N  N219  1  0.15680025  0.33365934  0.28507583  1
  H  H220  1  0.13908068  0.39760564  0.39677686  1
  C  C221  1  0.07403068  0.33686892  0.39962368  1
  C  C222  1  0.09038946  0.44888442  0.33117294  1
  C  C223  1  0.02443190  0.42433716  0.34219204  1
  C  C224  1  0.09571225  0.40842108  0.30617359  1
  C  C225  1  0.03010598  0.38163607  0.31761081  1
  C  C226  1  0.06567014  0.37352606  0.30131096  1
  C  C227  1  0.12001715  0.27435552  0.37528544  1
  C  C228  1  0.11474874  0.32472452  0.38737176  1
  C  C229  1  0.14532965  0.35874657  0.38839760  1
  C  C230  1  0.18927704  0.29302199  0.36848619  1
  C  C231  1  0.18215533  0.34486941  0.37594834  1
  O  O232  1  0.04919140  0.30642603  0.39260630  1
  O  O233  1  0.06532977  0.37880732  0.41835852  1
  Cu  Cu234  1  0.08018866  0.39104190  0.46972549  1
  C  C235  1  0.21726987  0.37643428  0.36562029  1
  H  H236  1  0.12274721  0.40388573  0.29143745  1
  N  N237  1  0.11167796  0.30557724  0.26979823  1
  C  C238  1  0.07677627  0.32990122  0.27370211  1
  Cu  Cu239  1  0.20641888  0.40277843  0.29905337  1
  C  C240  1  0.05492267  0.45679906  0.34935216  1
  H  H241  1  0.21823214  0.28050653  0.35980126  1
  O  O242  1  0.17112668  0.33193920  0.47927838  1
  C  C243  1  0.14157950  0.30913070  0.48458642  1
  O  O244  1  0.10731728  0.32376329  0.47560399  1
  O  O245  1  0.15680107  0.47424520  0.32780986  1
  N  N246  1  0.17249498  0.36002332  0.26094414  1
  C  C247  1  0.12218182  0.48511400  0.34130595  1
  N  N248  1  0.24135946  0.39707528  0.34970949  1
  O  O249  1  0.21453981  0.45101627  0.25987893  1
  Cu  Cu250  1  0.22726019  0.30260865  0.26109169  1
  N  N251  1  0.00103190  0.25447031  0.49640094  1
  O  O252  1  0.24839115  0.36500206  0.27423772  1
  O  O253  1  0.24010896  0.27095780  0.46355973  1
  N  N254  1  0.19464266  0.43680951  0.49771508  1
  C  C255  1  0.41671398  0.31953123  0.29433394  1
  H  H256  1  0.46455522  0.25645919  0.30013292  1
  N  N257  1  0.37743559  0.45706373  0.40670636  1
  C  C258  1  0.31445488  0.29789898  0.42458512  1
  O  O259  1  0.25493071  0.27505404  0.30269958  1
  Cu  Cu260  1  0.25515194  0.49955464  0.25688319  1
  Cu  Cu261  1  0.30800552  0.37996019  0.26226175  1
  O  O262  1  0.49837308  0.45063834  0.38997659  1
  N  N263  1  0.35378820  0.37418101  0.32850833  1
  N  N264  1  0.40837509  0.47131347  0.39292934  1
  C  C265  1  0.35255968  0.28636146  0.48149790  1
  C  C266  1  0.34158074  0.49191159  0.27508193  1
  C  C267  1  0.30045351  0.33423040  0.39567139  1
  H  H268  1  0.44288309  0.40565284  0.34439072  1
  N  N269  1  0.32242207  0.38938249  0.31830107  1
  H  H270  1  0.33409576  0.36050086  0.46158602  1
  C  C271  1  0.46275551  0.37369041  0.34244532  1
  O  O272  1  0.28219776  0.31760594  0.36671158  1
  O  O273  1  0.30090258  0.38108751  0.40299884  1
  N  N274  1  0.42481004  0.29511442  0.26181713  1
  C  C275  1  0.45270120  0.32974216  0.32187707  1
  C  C276  1  0.33280669  0.32027892  0.45726354  1
  C  C277  1  0.47612011  0.28717127  0.31791096  1
  H  H278  1  0.31707685  0.47252727  0.25939465  1
  N  N279  1  0.37944311  0.33201020  0.29357270  1
  O  O280  1  0.47441952  0.41681020  0.26392238  1
  O  O281  1  0.27989059  0.48210401  0.32463841  1
  C  C282  1  0.37959322  0.48697817  0.25910837  1
  Cu  Cu283  1  0.29412497  0.43012800  0.36308918  1
  Cu  Cu284  1  0.26609510  0.33972936  0.31664961  1
  N  N285  1  0.35834435  0.30439976  0.25247032  1
  H  H286  1  0.11882438  0.09613220  0.70182974  1
  C  C287  1  0.14434580  0.07241199  0.69453061  1
  H  H288  1  0.14599783  0.14736293  0.57438135  1
  C  C289  1  0.14626943  0.17803768  0.55419126  1
  C  C290  1  0.18091725  0.08627282  0.70877444  1
  N  N291  1  0.19040856  0.18642318  0.62577441  1
  C  C292  1  0.21546384  0.06031540  0.70174469  1
  C  C293  1  0.19926118  0.21595587  0.59587132  1
  N  N294  1  0.21767363  0.20465922  0.66610238  1
  C  C295  1  0.21191591  0.02489240  0.67243340  1
  C  C296  1  0.14388666  0.03155272  0.66945734  1
  N  N297  1  0.03357453  0.07202314  0.54792757  1
  C  C298  1  0.17456395  0.21532728  0.55683229  1
  C  C299  1  0.11418740  0.18381565  0.52801461  1
  C  C300  1  0.18467305  0.13403266  0.73060231  1
  C  C301  1  0.21561324  0.06588549  0.53299029  1
  O  O302  1  0.07578415  0.11556848  0.55001601  1
  C  C303  1  0.10184894  0.00794229  0.65507184  1
  O  O304  1  0.15442863  0.16082887  0.73391076  1
  N  N305  1  0.23782798  0.23973070  0.65569281  1
  O  O306  1  0.22821947  0.03418204  0.55395690  1
  N  N307  1  0.07188906  0.00315896  0.67933677  1
  H  H308  1  0.24335453  0.06715557  0.71601228  1
  C  C309  1  0.08071382  0.14862068  0.52529625  1
  O  O310  1  0.18731146  0.05680842  0.50921883  1
  C  C311  1  0.23646930  0.11638485  0.53304189  1
  C  C312  1  0.17628029  0.00692635  0.65800579  1
  Cu  Cu313  1  0.02024153  0.10428275  0.73185608  1
  O  O314  1  0.10308928  0.22404962  0.62798309  1
  C  C315  1  0.07136051  0.23919853  0.62174942  1
  O  O316  1  0.05486859  0.24114545  0.58879598  1
  O  O317  1  0.21578189  0.15120225  0.74332358  1
  N  N318  1  0.12629311  0.01631071  0.55140425  1
  N  N319  1  0.22752339  0.24877488  0.60705948  1
  H  H320  1  0.10764710  0.24647006  0.69001694  1
  N  N321  1  0.00476840  0.23115958  0.52465302  1
  N  N322  1  0.00756789  0.08290261  0.52706356  1
  C  C323  1  0.22105119  0.14986122  0.50583372  1
  Cu  Cu324  1  0.23022091  0.21466163  0.74979283  1
  O  O325  1  0.00384983  0.08084020  0.68308781  1
  C  C326  1  0.11221667  0.22610490  0.50474989  1
  C  C327  1  0.23872692  0.19714494  0.50014705  1
  Cu  Cu328  1  0.00517741  0.15531712  0.50309348  1
  O  O329  1  0.28078196  0.01010969  0.66911221  1
  H  H330  1  0.44032381  0.01194338  0.52010802  1
  H  H331  1  0.48206126  0.21894048  0.56696149  1
  C  C332  1  0.46751199  0.02833533  0.52167009  1
  C  C333  1  0.27058164  0.21309142  0.52023781  1
  O  O334  1  0.39619142  0.07175870  0.66975955  1
  C  C335  1  0.26840667  0.12837564  0.55405055  1
  N  N336  1  0.29630495  0.20816068  0.71205858  1
  N  N337  1  0.34519533  0.20287737  0.58782041  1
  C  C338  1  0.41358295  0.13107384  0.57556121  1
  H  H339  1  0.28265661  0.09788304  0.57082577  1
  C  C340  1  0.44535536  0.14255525  0.63936082  1
  C  C341  1  0.43659264  0.16692209  0.55767902  1
  Cu  Cu342  1  0.31944112  0.04588331  0.64154960  1
  C  C343  1  0.43300731  0.18103110  0.51272611  1
  C  C344  1  0.46317145  0.19186050  0.57982175  1
  H  H345  1  0.38993305  0.11234413  0.56118103  1
  O  O346  1  0.36230711  0.07145686  0.61407575  1
  N  N347  1  0.31446296  0.11316111  0.70139956  1
  C  C348  1  0.41822220  0.12039465  0.61607026  1
  H  H349  1  0.45016271  0.13225122  0.67060248  1
  C  C350  1  0.28479735  0.17687773  0.54651348  1
  C  C351  1  0.46672627  0.18030072  0.62046747  1
  Cu  Cu352  1  0.36249720  0.16838044  0.67003758  1
  C  C353  1  0.39135374  0.08731506  0.63470711  1
  N  N354  1  0.39188317  0.21854729  0.69873988  1
  Cu  Cu355  1  0.29216859  0.18859942  0.65526866  1
  N  N356  1  0.33857873  0.21965646  0.63810404  1
  N  N357  1  0.30724945  0.11749956  0.66723600  1
  C  C358  1  0.31765826  0.19106224  0.57097264  1
  N  N359  1  0.30288014  0.17214174  0.73182230  1
  N  N360  1  0.37063760  0.02919860  0.53440899  1
  H  H361  1  0.39548903  0.11412704  0.73290442  1
  C  C362  1  0.40659089  0.22514800  0.73518433  1
  N  N363  1  0.45498398  0.01856828  0.71016021  1
  C  C364  1  0.48872904  0.02530994  0.55573150  1
  C  C365  1  0.48605715  0.00619233  0.70597792  1
  Cu  Cu366  1  0.40617180  0.00335892  0.67799906  1
  C  C367  1  0.49489432  0.20973431  0.64256849  1
  C  C368  1  0.17594210  0.25704935  0.53019709  1
  Cu  Cu369  1  0.00926163  0.27437359  0.57661212  1
  C  C370  1  0.05230864  0.25897532  0.65977591  1
  C  C371  1  0.00018343  0.41183355  0.73801269  1
  C  C372  1  0.07677411  0.25842378  0.69180326  1
  C  C373  1  0.01299127  0.27164273  0.66086135  1
  O  O374  1  0.17786645  0.30944662  0.69419018  1
  H  H375  1  0.19707279  0.28853770  0.52883498  1
  H  H376  1  0.15822898  0.38449334  0.53371776  1
  C  C377  1  0.15633683  0.36969766  0.56436126  1
  C  C378  1  0.08630124  0.38896147  0.55686302  1
  H  H379  1  0.08980654  0.36673951  0.63847570  1
  C  C380  1  0.12076171  0.37748394  0.58317761  1
  C  C381  1  0.15107010  0.34952964  0.64119634  1
  C  C382  1  0.11731605  0.36531982  0.62213207  1
  C  C383  1  0.18849016  0.34955156  0.58303936  1
  C  C384  1  0.18542566  0.33540642  0.62123599  1
  O  O385  1  0.12798044  0.35816525  0.70635877  1
  C  C386  1  0.14941313  0.33684922  0.68190632  1
  H  H387  1  0.20954373  0.31501388  0.63616154  1
  Cu  Cu388  1  0.22410797  0.39138010  0.70612864  1
  O  O389  1  0.05360390  0.38274520  0.56540715  1
  C  C390  1  0.23212709  0.34138555  0.56839800  1
  C  C391  1  0.23055582  0.46391084  0.56061913  1
  O  O392  1  0.02728160  0.45351636  0.68574844  1
  O  O393  1  0.09567122  0.40857295  0.52306567  1
  N  N394  1  0.23441930  0.43125805  0.53105364  1
  C  C395  1  0.23268985  0.47605748  0.63544201  1
  C  C396  1  0.23441439  0.47678557  0.70618716  1
  C  C397  1  0.06097260  0.27327416  0.72745267  1
  Cu  Cu398  1  0.14884665  0.40267777  0.73927565  1
  N  N399  1  0.17567380  0.47126988  0.51032644  1
  O  O400  1  0.19764594  0.48589283  0.70221978  1
  H  H401  1  0.20246630  0.48474959  0.63537155  1
  C  C402  1  0.02189371  0.28887502  0.73132405  1
  N  N403  1  0.20174218  0.49513433  0.55118045  1
  H  H404  1  0.05852745  0.43968315  0.74770164  1
  C  C405  1  0.14336882  0.25940403  0.50742944  1
  H  H406  1  0.28341734  0.25047142  0.51459546  1
  H  H407  1  0.47489988  0.49369783  0.56206751  1
  N  N408  1  0.25090175  0.29997173  0.57726070  1
  N  N409  1  0.25293836  0.37064815  0.54600049  1
  Cu  Cu410  1  0.36450551  0.30355825  0.73886630  1
  O  O411  1  0.37451709  0.44106312  0.60490743  1
  C  C412  1  0.49676296  0.47287043  0.65759056  1
  C  C413  1  0.29536699  0.45988150  0.67063499  1
  O  O414  1  0.39490136  0.34312655  0.70975080  1
  N  N415  1  0.27389769  0.34211621  0.65833903  1
  H  H416  1  0.30946011  0.45335664  0.57306167  1
  C  C417  1  0.35711394  0.44062040  0.63460281  1
  C  C418  1  0.49613603  0.46694881  0.61719785  1
  N  N419  1  0.39888610  0.31330356  0.58935537  1
  Cu  Cu420  1  0.35305128  0.35773834  0.68214604  1
  Cu  Cu421  1  0.44615684  0.32977695  0.74190021  1
  N  N422  1  0.49712652  0.30635614  0.68302057  1
  H  H423  1  0.31169797  0.45553717  0.69824172  1
  N  N424  1  0.26289223  0.33981741  0.69113962  1
  O  O425  1  0.33435395  0.29736797  0.69275785  1
  N  N426  1  0.30221286  0.30863541  0.56634066  1
  N  N427  1  0.36283842  0.31879016  0.55281212  1
  O  O428  1  0.25128489  0.46830837  0.73670517  1
  N  N429  1  0.30328923  0.34865679  0.54796492  1
  N  N430  1  0.47122619  0.33465782  0.69122209  1
  Cu  Cu431  1  0.30854357  0.28667225  0.63994058  1
  N  N432  1  0.41318431  0.28441813  0.52684111  1
  Cu  Cu433  1  0.38404766  0.25706795  0.65237704  1
  C  C434  1  0.29441409  0.45885335  0.60097858  1
  C  C435  1  0.25506042  0.46977385  0.66978416  1
  C  C436  1  0.31463500  0.45690616  0.63545790  1
  C  C437  1  0.25375054  0.46800216  0.60062294  1
  N  N438  1  0.42795496  0.29952856  0.57305744  1
  O  O439  1  0.37191691  0.42158398  0.66583564  1
  Cu  Cu440  1  0.28913525  0.28506354  0.72664666  1
  C  C441  1  0.37583841  0.30015619  0.51931272  1
  N  N442  1  0.42608134  0.26533077  0.74733872  1
  C  C443  1  0.21884551  0.17886639  0.96341707  1
  N  N444  1  0.10050897  0.14098642  0.92831530  1
  O  O445  1  0.23297114  0.13488149  0.95288490  1
  Cu  Cu446  1  0.13717630  0.19167875  0.77946848  1
  N  N447  1  0.11959172  0.10130609  0.88531361  1
  N  N448  1  0.15597708  0.12096656  0.85261229  1
  N  N449  1  0.15486142  0.08805192  0.82800053  1
  H  H450  1  0.09502315  0.15288391  0.85779126  1
  C  C451  1  0.07035567  0.17017270  0.92960518  1
  C  C452  1  0.05822799  0.16756988  0.78583789  1
  O  O453  1  0.09254284  0.15169241  0.78249737  1
  N  N454  1  0.06279494  0.17974710  0.96748927  1
  C  C455  1  0.19815353  0.21229042  0.93362826  1
  H  H456  1  0.21764876  0.16632522  0.88517458  1
  C  C457  1  0.20361666  0.20098172  0.89505541  1
  C  C458  1  0.04680360  0.18393659  0.89300665  1
  C  C459  1  0.06549960  0.17321064  0.85852322  1
  C  C460  1  0.04305210  0.18181173  0.82550196  1
  C  C461  1  0.10440376  0.05814812  0.87412605  1
  C  C462  1  0.18833042  0.23239159  0.82609295  1
  N  N463  1  0.19041138  0.23046651  0.79285131  1
  C  C464  1  0.06757829  0.03035375  0.89539556  1
  N  N465  1  0.12028703  0.04312566  0.84085320  1
  Cu  Cu466  1  0.22229496  0.06840835  0.97470978  1
  N  N467  1  0.11886371  0.13133404  0.97671508  1
  C  C468  1  0.02937015  0.04795393  0.89006202  1
  H  H469  1  0.02449674  0.08264104  0.87314703  1
  O  O470  1  0.21156729  0.03219460  0.92574289  1
  C  C471  1  0.18637955  0.23498616  0.86915089  1
  C  C472  1  0.01203442  0.21000588  0.89792362  1
  O  O473  1  0.03499447  0.16405681  0.75860683  1
  O  O474  1  0.21792570  0.18779425  0.99762283  1
  N  N475  1  0.03201941  0.23500010  0.98426636  1
  C  C476  1  0.00656786  0.20299284  0.82624102  1
  H  H477  1  0.03254905  0.13739346  0.99827730  1
  N  N478  1  0.09537973  0.15133352  0.99805341  1
  C  C479  1  0.30257189  0.01442015  0.80952764  1
  O  O480  1  0.28006963  0.21255547  0.81982741  1
  C  C481  1  0.39933173  0.18261659  0.76716530  1
  C  C482  1  0.35574163  0.06294634  0.93879382  1
  C  C483  1  0.30543280  0.14363733  0.86013936  1
  C  C484  1  0.39854080  0.10465094  0.79843831  1
  H  H485  1  0.39583245  0.09465376  0.86244357  1
  C  C486  1  0.33300870  0.08150783  0.90142369  1
  O  O487  1  0.36705365  0.01947336  0.93717203  1
  O  O488  1  0.36014332  0.09362286  0.96391981  1
  H  H489  1  0.32337187  0.15803062  0.91972520  1
  C  C490  1  0.32832895  0.04404646  0.87463779  1
  O  O491  1  0.39995571  0.17638589  0.90983973  1
  C  C492  1  0.39878756  0.19754671  0.87937590  1
  C  C493  1  0.39907821  0.20280178  0.80435697  1
  C  C494  1  0.39755913  0.12141616  0.83763447  1
  C  C495  1  0.32236354  0.13058547  0.89622566  1
  C  C496  1  0.31138190  0.05701769  0.83918684  1
  H  H497  1  0.28597083  0.12158542  0.80430029  1
  C  C498  1  0.30201606  0.10756224  0.83128467  1
  C  C499  1  0.29190767  0.19761352  0.85481746  1
  C  C500  1  0.39744756  0.17360802  0.83845680  1
  C  C501  1  0.39557120  0.05042736  0.79532410  1
  O  O502  1  0.39004706  0.02297305  0.82498398  1
  C  C503  1  0.39720888  0.13215277  0.76232998  1
  O  O504  1  0.39784448  0.02946483  0.76188924  1
  O  O505  1  0.29172546  0.22320834  0.88276391  1
  H  H506  1  0.33506971  0.00215935  0.88259088  1
  N  N507  1  0.28301109  0.01769359  0.77697779  1
  N  N508  1  0.49090777  0.19552231  0.93865497  1
  H  H509  1  0.40333977  0.24068104  0.81303870  1
  O  O510  1  0.39777322  0.24796069  0.87809449  1
  C  C511  1  0.17668357  0.25172370  0.94978345  1
  H  H512  1  0.17217718  0.25735149  0.98011879  1
  O  O513  1  0.12224910  0.25249719  0.75832932  1
  H  H514  1  0.01171025  0.29961005  0.75887960  1
  C  C515  1  0.00494490  0.37826450  0.81457117  1
  C  C516  1  0.16239962  0.27390186  0.88308544  1
  C  C517  1  0.15788125  0.28195803  0.92236344  1
  Cu  Cu518  1  0.13857511  0.47309840  0.81835792  1
  O  O519  1  0.12417984  0.31603882  0.97721564  1
  O  O520  1  0.07792597  0.28638476  0.79278327  1
  C  C521  1  0.12977141  0.31774725  0.93995356  1
  H  H522  1  0.14757500  0.29608309  0.86176877  1
  C  C523  1  0.03540564  0.40058025  0.79775647  1
  C  C524  1  0.07122060  0.40676375  0.82247851  1
  O  O525  1  0.07001565  0.40354415  0.85675050  1
  Cu  Cu526  1  0.19116194  0.40357045  0.80170426  1
  O  O527  1  0.16694748  0.45149868  0.77542827  1
  O  O528  1  0.11530873  0.34954874  0.91956254  1
  O  O529  1  0.10263437  0.42127117  0.80305091  1
  N  N530  1  0.22270162  0.34065905  0.82295725  1
  C  C531  1  0.08752422  0.27142429  0.76178413  1
  Cu  Cu532  1  0.24272670  0.26617699  0.81455042  1
  N  N533  1  0.02058224  0.28881077  0.95711558  1
  C  C534  1  0.03373839  0.41998100  0.76044019  1
  H  H535  1  0.00687766  0.36941247  0.84571704  1
  O  O536  1  0.19778960  0.46058545  0.98364451  1
  O  O537  1  0.24367007  0.28150989  0.75958207  1
  C  C538  1  0.24779604  0.36218063  0.83562936  1
  N  N539  1  0.20126565  0.36687848  0.75079958  1
  Cu  Cu540  1  0.18819232  0.29292385  0.75220056  1
  C  C541  1  0.39393923  0.36704936  0.82721718  1
  H  H542  1  0.49795033  0.29029624  0.99075706  1
  N  N543  1  0.49525783  0.25505265  0.91555391  1
  H  H544  1  0.26031274  0.48974825  0.98538578  1
  N  N545  1  0.43752341  0.47177162  0.94750912  1
  Cu  Cu546  1  0.41740257  0.28518884  0.92015227  1
  C  C547  1  0.33736034  0.35509795  0.78285993  1
  C  C548  1  0.42013910  0.40176877  0.84304396  1
  C  C549  1  0.31581620  0.47039814  0.85795053  1
  C  C550  1  0.39950124  0.46623521  0.79974910  1
  C  C551  1  0.33911381  0.44562988  0.88551394  1
  C  C552  1  0.44625111  0.38154477  0.87398737  1
  C  C553  1  0.37518711  0.43258723  0.78164409  1
  O  O554  1  0.43888804  0.31275346  0.96361064  1
  H  H555  1  0.27057587  0.46316200  0.81710635  1
  C  C556  1  0.33410946  0.39476090  0.89329209  1
  C  C557  1  0.30368494  0.36766678  0.87695702  1
  C  C558  1  0.42144857  0.45177828  0.83261066  1
  O  O559  1  0.38367485  0.40194744  0.93923481  1
  O  O560  1  0.37054918  0.32593085  0.92014423  1
  Cu  Cu561  1  0.25595699  0.35276860  0.77029578  1
  O  O562  1  0.47228886  0.41101966  0.88691622  1
  H  H563  1  0.29597807  0.32923010  0.88724673  1
  C  C564  1  0.28645767  0.44344362  0.84103819  1
  H  H565  1  0.39367514  0.32730465  0.83625488  1
  N  N566  1  0.43664790  0.44898292  0.97879317  1
  O  O567  1  0.44606070  0.33593292  0.87906994  1
  H  H568  1  0.36357761  0.46191117  0.90131987  1
  C  C569  1  0.36327428  0.37164373  0.91970090  1
  N  N570  1  0.31480540  0.33083742  0.76818940  1
  H  H571  1  0.44231513  0.47706596  0.84565278  1
  C  C572  1  0.36687674  0.38554523  0.79991135  1
  C  C573  1  0.27832371  0.39293306  0.85117784  1
  H  H574  1  0.35844765  0.44357229  0.75625976  1
  C  C575  1  0.33484440  0.48574002  0.99736984  1
  Cu  Cu576  1  0.38413613  0.40837404  0.99402433  1
  C  C577  1  0.42549263  0.32261102  0.99739107  1
  O  O578  1  0.37044108  0.47609741  0.99654703  1
  O  O579  1  0.15018060  0.58443483  0.04382722  1
  C  C580  1  0.22607716  0.65947008  0.14284265  1
  O  O581  1  0.19869337  0.65111456  0.16836641  1
  Cu  Cu582  1  0.18078288  0.70530430  0.19676217  1
  H  H583  1  0.19816030  0.57012318  0.10092152  1
  C  C584  1  0.13129523  0.54617311  0.05478098  1
  C  C585  1  0.18542075  0.53066202  0.10317934  1
  O  O586  1  0.10209522  0.53031935  0.03805964  1
  H  H587  1  0.00799613  0.68875369  0.02867765  1
  Cu  Cu588  1  0.05217863  0.55337797  0.04921368  1
  C  C589  1  0.15163899  0.51552533  0.08462835  1
  O  O590  1  0.05528832  0.61811887  0.02967232  1
  O  O591  1  0.21887511  0.65936341  0.10841088  1
  C  C592  1  0.01662311  0.69166089  0.18377101  1
  C  C593  1  0.03731914  0.67052999  0.21884270  1
  O  O594  1  0.06793305  0.68708852  0.22991058  1
  O  O595  1  0.01654790  0.64087019  0.23984422  1
  O  O596  1  0.15967726  0.68631332  0.24322781  1
  C  C597  1  0.24354089  0.51031608  0.14674862  1
  C  C598  1  0.03493860  0.73203403  0.16595189  1
  C  C599  1  0.02465496  0.71127750  0.00608503  1
  H  H600  1  0.06210146  0.74777389  0.17657047  1
  O  O601  1  0.13508866  0.50745427  0.24905776  1
  C  C602  1  0.07066828  0.64079745  0.00100658  1
  H  H603  1  0.25488865  0.65889971  0.21318484  1
  C  C604  1  0.48873378  0.51904434  0.05659013  1
  O  O605  1  0.26294180  0.54648678  0.14033672  1
  C  C606  1  0.26729547  0.67296952  0.15203998  1
  N  N607  1  0.49015736  0.65178633  0.12815211  1
  C  C608  1  0.27690283  0.66999705  0.19150468  1
  Cu  Cu609  1  0.40097831  0.66575709  0.01419525  1
  C  C610  1  0.35994820  0.71662509  0.10226793  1
  C  C611  1  0.33228431  0.70139580  0.13299571  1
  N  N612  1  0.38575444  0.72459761  0.08150473  1
  N  N613  1  0.41442394  0.62087556  0.20744275  1
  O  O614  1  0.37487357  0.60507991  0.01741195  1
  C  C615  1  0.34345903  0.69504828  0.17273185  1
  C  C616  1  0.31580964  0.68071695  0.20057103  1
  N  N617  1  0.40724539  0.60368353  0.23936559  1
  N  N618  1  0.45649175  0.65498442  0.21169867  1
  C  C619  1  0.29385672  0.68620441  0.12378436  1
  H  H620  1  0.37401192  0.70179777  0.18020149  1
  C  C621  1  0.32573489  0.68046749  0.24310812  1
  H  H622  1  0.28441399  0.68638582  0.09420488  1
  C  C623  1  0.47379396  0.64494207  0.24633730  1
  N  N624  1  0.48093337  0.68359164  0.16953771  1
  N  N625  1  0.49717157  0.73398345  0.02982438  1
  O  O626  1  0.49533817  0.55728744  0.03835088  1
  H  H627  1  0.45486571  0.74376728  0.23631604  1
  O  O628  1  0.43030098  0.72173403  0.00139973  1
  C  C629  1  0.01658846  0.75581110  0.13425437  1
  O  O630  1  0.19928730  0.77008139  0.21153490  1
  Cu  Cu631  1  0.02004268  0.94260848  0.02627072  1
  N  N632  1  0.05039242  0.84377685  0.13173513  1
  C  C633  1  0.02923439  0.80766416  0.11470130  1
  N  N634  1  0.05465766  0.89639463  0.09889374  1
  N  N635  1  0.02243116  0.82384104  0.07747468  1
  C  C636  1  0.13577442  0.93250528  0.16218825  1
  C  C637  1  0.20750959  0.93989358  0.16520721  1
  O  O638  1  0.15198408  0.90065394  0.08393310  1
  C  C639  1  0.17865143  0.91675987  0.10313790  1
  O  O640  1  0.21333017  0.92373293  0.08850725  1
  C  C641  1  0.17367405  0.92872984  0.14457496  1
  C  C642  1  0.20323650  0.95187524  0.20355431  1
  C  C643  1  0.13415719  0.94714760  0.20178379  1
  H  H644  1  0.11091873  0.92447869  0.14403958  1
  N  N645  1  0.03573780  0.88511685  0.07044485  1
  C  C646  1  0.09283456  0.93800920  0.21919327  1
  C  C647  1  0.16794442  0.95520398  0.22336265  1
  N  N648  1  0.06026995  0.95642796  0.20365512  1
  O  O649  1  0.15263882  0.82462725  0.21116762  1
  C  C650  1  0.17959044  0.80729177  0.22736070  1
  Cu  Cu651  1  0.23114065  0.96130377  0.04558866  1
  H  H652  1  0.23626683  0.93561631  0.14922461  1
  H  H653  1  0.13197872  0.98875496  0.08721570  1
  C  C654  1  0.24014508  0.95670223  0.22840256  1
  N  N655  1  0.02242737  0.93519573  0.22903395  1
  N  N656  1  0.05455336  0.98375540  0.15247620  1
  C  C657  1  0.23669311  0.87434254  0.00292337  1
  C  C658  1  0.33889248  0.86914934  0.23579695  1
  C  C659  1  0.48321907  0.76013340  0.23938102  1
  O  O660  1  0.25969119  0.90335948  0.02420553  1
  O  O661  1  0.27143945  0.95846914  0.21422573  1
  C  C662  1  0.39877849  0.94679694  0.00194510  1
  C  C663  1  0.37026946  0.90924923  0.24991579  1
  C  C664  1  0.39476618  0.98662606  0.02841631  1
  N  N665  1  0.30105925  0.80977495  0.19477995  1
  C  C666  1  0.32705620  0.99647203  0.01755559  1
  C  C667  1  0.38307498  0.94212028  0.22204181  1
  N  N668  1  0.36797775  0.86335589  0.04991866  1
  C  C669  1  0.41205100  0.97424902  0.23484083  1
  N  N670  1  0.28981583  0.79845259  0.22761698  1
  N  N671  1  0.33377638  0.85735675  0.19927557  1
  N  N672  1  0.39414880  0.77707641  0.05014856  1
  N  N673  1  0.47455930  0.93787771  0.07941060  1
  O  O674  1  0.46013413  0.98276951  0.04242563  1
  H  H675  1  0.36976371  0.94352925  0.19300773  1
  Cu  Cu676  1  0.37312823  0.77358458  0.00214521  1
  N  N677  1  0.37986434  0.83160775  0.07212885  1
  Cu  Cu678  1  0.44809369  0.77565846  0.03969375  1
  O  O679  1  0.46048434  0.85216627  0.00265444  1
  H  H680  1  0.30291340  0.82483421  0.01148734  1
  C  C681  1  0.28090406  0.79970619  0.00136385  1
  N  N682  1  0.19793701  0.56036304  0.39917214  1
  C  C683  1  0.17084660  0.59564457  0.40574619  1
  C  C684  1  0.14789759  0.62545411  0.37383111  1
  N  N685  1  0.16779636  0.60725923  0.44384007  1
  C  C686  1  0.16754246  0.63209760  0.33859301  1
  H  H687  1  0.19880846  0.62136366  0.33444344  1
  C  C688  1  0.15041335  0.65656923  0.30707386  1
  H  H689  1  0.09447080  0.63495406  0.40614970  1
  C  C690  1  0.11019348  0.64047811  0.37847413  1
  C  C691  1  0.11086989  0.67105265  0.31031008  1
  C  C692  1  0.09344527  0.66373996  0.34551107  1
  N  N693  1  0.21407187  0.54110107  0.44373898  1
  C  C694  1  0.05207152  0.67951387  0.34627170  1
  O  O695  1  0.01974492  0.57797917  0.30172068  1
  O  O696  1  0.03308812  0.69010189  0.31639469  1
  O  O697  1  0.03807228  0.68055258  0.38016992  1
  C  C698  1  0.17505319  0.66480301  0.27287338  1
  H  H699  1  0.09726467  0.69089419  0.28665799  1
  N  N700  1  0.19709796  0.56689885  0.46772862  1
  O  O701  1  0.15787755  0.71506014  0.45701362  1
  O  O702  1  0.20978591  0.65653782  0.27386902  1
  Cu  Cu703  1  0.13720793  0.65789850  0.48241722  1
  N  N704  1  0.22204740  0.59040222  0.26294180  1
  H  H705  1  0.07625723  0.53821896  0.26348318  1
  O  O706  1  0.05060903  0.71691619  0.48895430  1
  H  H707  1  0.21396419  0.74378279  0.47602007  1
  O  O708  1  0.08375741  0.64551229  0.47853920  1
  Cu  Cu709  1  0.00205499  0.64467767  0.29055419  1
  O  O710  1  0.11671113  0.52213250  0.36058905  1
  O  O711  1  0.24775812  0.64335731  0.43900627  1
  C  C712  1  0.05682185  0.50689617  0.25534074  1
  C  C713  1  0.01912260  0.50207996  0.26914440  1
  C  C714  1  0.06062263  0.67313263  0.49825062  1
  N  N715  1  0.25478357  0.57717607  0.26728387  1
  H  H716  1  0.44160171  0.50429992  0.26692017  1
  Cu  Cu717  1  0.26221123  0.62908437  0.48734810  1
  O  O718  1  0.25085133  0.71570227  0.40694132  1
  N  N719  1  0.47762597  0.61131806  0.39995244  1
  Cu  Cu720  1  0.29321496  0.61604089  0.30172089  1
  C  C721  1  0.40544095  0.54146922  0.31052282  1
  N  N722  1  0.40950071  0.53396365  0.39822249  1
  C  C723  1  0.37272133  0.54944472  0.40794444  1
  H  H724  1  0.29653016  0.58960026  0.40730337  1
  C  C725  1  0.32011395  0.61829480  0.41250830  1
  C  C726  1  0.35978638  0.60502827  0.41449278  1
  C  C727  1  0.33657815  0.70582011  0.42500247  1
  C  C728  1  0.31027249  0.66745706  0.41733158  1
  N  N729  1  0.44128946  0.56883502  0.37256318  1
  C  C730  1  0.26534422  0.67883756  0.41895938  1
  C  C731  1  0.43744803  0.57163412  0.33302203  1
  N  N732  1  0.45939198  0.60335957  0.31644562  1
  C  C733  1  0.38772777  0.64289389  0.42216426  1
  H  H734  1  0.41946989  0.63420525  0.42432324  1
  C  C735  1  0.36733201  0.54895240  0.32284045  1
  H  H736  1  0.36203310  0.57217801  0.34857223  1
  O  O737  1  0.28811328  0.56503153  0.33656249  1
  C  C738  1  0.37487140  0.69252976  0.42869460  1
  C  C739  1  0.29914904  0.52127270  0.32689087  1
  C  C740  1  0.33732368  0.51930346  0.30832769  1
  H  H741  1  0.48665359  0.67552209  0.32118643  1
  C  C742  1  0.40132750  0.73574581  0.43337116  1
  O  O743  1  0.43716143  0.73160732  0.42993579  1
  H  H744  1  0.32729383  0.74575183  0.42668738  1
  N  N745  1  0.45029725  0.61508518  0.26624507  1
  N  N746  1  0.34979689  0.51125872  0.41475533  1
  C  C747  1  0.41169346  0.50922862  0.27781481  1
  O  O748  1  0.29647348  0.66721873  0.26732505  1
  O  O749  1  0.28322158  0.74641933  0.48949678  1
  O  O750  1  0.29482903  0.57986224  0.49941138  1
  O  O751  1  0.35769360  0.68889172  0.25465181  1
  N  N752  1  0.00564363  0.83536472  0.36512332  1
  C  C753  1  0.09789168  0.93995473  0.45498554  1
  C  C754  1  0.14790997  0.75825747  0.44935225  1
  C  C755  1  0.21315005  0.78602553  0.47213431  1
  O  O756  1  0.11527107  0.76859653  0.43671663  1
  C  C757  1  0.16912622  0.86604839  0.28325687  1
  C  C758  1  0.18384426  0.88346745  0.31915069  1
  C  C759  1  0.21976322  0.86829435  0.33428902  1
  C  C760  1  0.17244619  0.85150558  0.45786587  1
  C  C761  1  0.20332170  0.88458464  0.46496582  1
  H  H762  1  0.14451914  0.86699995  0.45111590  1
  C  C763  1  0.04502481  0.88976856  0.42739440  1
  H  H764  1  0.05782634  0.89794246  0.39774167  1
  C  C765  1  0.16216332  0.92260291  0.33906958  1
  O  O766  1  0.17371707  0.93398488  0.37326506  1
  O  O767  1  0.13318864  0.94292408  0.32505850  1
  C  C768  1  0.17603600  0.79982037  0.45924969  1
  H  H769  1  0.14321261  0.88088736  0.26934237  1
  C  C770  1  0.06292539  0.91063169  0.46118237  1
  C  C771  1  0.01284184  0.86324230  0.43810429  1
  C  C772  1  0.22695997  0.81099865  0.28060794  1
  N  N773  1  0.18265285  0.97721136  0.45025383  1
  C  C774  1  0.19199627  0.93730290  0.45726132  1
  C  C775  1  0.19198931  0.82944565  0.26567179  1
  H  H776  1  0.23262696  0.88506227  0.36058899  1
  O  O777  1  0.11241672  0.94294137  0.42246509  1
  C  C778  1  0.24180363  0.83393416  0.31421988  1
  Cu  Cu779  1  0.07972431  0.77202739  0.47852382  1
  C  C780  1  0.24178807  0.86583449  0.47191183  1
  O  O781  1  0.11673584  0.95543219  0.48557138  1
  Cu  Cu782  1  0.14870600  0.98839588  0.40164377  1
  N  N783  1  0.03500060  0.91314812  0.25760091  1
  C  C784  1  0.00172685  0.85198392  0.47612023  1
  H  H785  1  0.24550706  0.78580845  0.26388127  1
  C  C786  1  0.24607429  0.81645880  0.47707906  1
  H  H787  1  0.23192407  0.98907947  0.35646534  1
  H  H788  1  0.16646646  0.96007326  0.25471674  1
  O  O789  1  0.23569899  0.96253675  0.26569693  1
  N  N790  1  0.08495179  0.91339150  0.25191127  1
  O  O791  1  0.34008720  0.92744479  0.35526629  1
  O  O792  1  0.42995898  0.76323742  0.29697476  1
  C  C793  1  0.43367113  0.93596882  0.33688460  1
  O  O794  1  0.28775111  0.94444593  0.32031975  1
  C  C795  1  0.25251094  0.99980718  0.38095893  1
  N  N796  1  0.34121058  0.79686168  0.36750185  1
  H  H797  1  0.33843855  0.95397359  0.42138120  1
  N  N798  1  0.43618615  0.85595327  0.43969579  1
  O  O799  1  0.38313892  0.77584547  0.44269979  1
  N  N800  1  0.49597130  0.89367342  0.44604660  1
  H  H801  1  0.26761869  0.88763079  0.47178051  1
  C  C802  1  0.31337869  0.97840057  0.41893245  1
  C  C803  1  0.43007850  0.97339220  0.27164751  1
  C  C804  1  0.28598059  0.82523822  0.33146264  1
  O  O805  1  0.46704417  0.79935710  0.34053304  1
  C  C806  1  0.28951002  0.97655928  0.38532420  1
  Cu  Cu807  1  0.45577235  0.76279987  0.38479842  1
  N  N808  1  0.47498454  0.82596756  0.41706563  1
  N  N809  1  0.31820231  0.83067305  0.30973111  1
  H  H810  1  0.45580719  0.99605694  0.28005427  1
  C  C811  1  0.38306635  0.90605449  0.28877477  1
  O  O812  1  0.42566826  0.90549810  0.36054614  1
  Cu  Cu813  1  0.36531426  0.79494250  0.49280039  1
  C  C814  1  0.41378446  0.93959210  0.29711851  1
  O  O815  1  0.46493274  0.96674283  0.34039915  1
  C  C816  1  0.46031610  0.78085932  0.30621739  1
  C  C817  1  0.49190670  0.78328420  0.27539444  1
  N  N818  1  0.29321379  0.80806470  0.36653148  1
  N  N819  1  0.44815403  0.89593179  0.45338753  1
  H  H820  1  0.36979595  0.88475436  0.31123552  1
  C  C821  1  0.30894039  0.94645956  0.35375539  1
  N  N822  1  0.35739420  0.80795052  0.33691605  1
  O  O823  1  0.31341430  0.82112286  0.48806276  1
  C  C824  1  0.28484769  0.79270729  0.48553164  1
  N  N825  1  0.31365441  0.84199950  0.25722624  1
  N  N826  1  0.17874598  0.60890772  0.62742044  1
  N  N827  1  0.18242845  0.54579017  0.58578065  1
  N  N828  1  0.13379049  0.60252552  0.61215014  1
  N  N829  1  0.13359624  0.56465786  0.59142795  1
  H  H830  1  0.07758344  0.59015616  0.53743835  1
  C  C831  1  0.05281138  0.61147287  0.55184687  1
  C  C832  1  0.04191580  0.65665656  0.53468392  1
  O  O833  1  0.08275508  0.53628470  0.68339722  1
  C  C834  1  0.18711466  0.70594066  0.65223515  1
  C  C835  1  0.20177851  0.57522453  0.60951305  1
  N  N836  1  0.20072363  0.67315443  0.63601013  1
  C  C837  1  0.20206201  0.67679875  0.52877700  1
  C  C838  1  0.19508230  0.72742888  0.54630534  1
  H  H839  1  0.05706516  0.63010596  0.67013136  1
  C  C840  1  0.07009236  0.64302763  0.69770518  1
  C  C841  1  0.07190680  0.69514863  0.70540388  1
  C  C842  1  0.09627885  0.55714569  0.71283615  1
  C  C843  1  0.08924440  0.60988505  0.72250686  1
  H  H844  1  0.20096864  0.71337536  0.72930803  1
  O  O845  1  0.17320661  0.65014484  0.52376293  1
  H  H846  1  0.13621113  0.73084739  0.52564553  1
  C  C847  1  0.08740297  0.71360724  0.73920686  1
  C  C848  1  0.04152713  0.54367016  0.60118245  1
  C  C849  1  0.03450232  0.59576431  0.58619154  1
  Cu  Cu850  1  0.02701717  0.52569335  0.68399900  1
  O  O851  1  0.23577549  0.65886589  0.52859186  1
  O  O852  1  0.11308935  0.53143147  0.73947277  1
  C  C853  1  0.05739517  0.73517022  0.67585040  1
  O  O854  1  0.01877772  0.52742299  0.62890297  1
  C  C855  1  0.00362023  0.62217520  0.60138533  1
  Cu  Cu856  1  0.16825142  0.51316459  0.74240424  1
  N  N857  1  0.02783325  0.73763428  0.64888293  1
  C  C858  1  0.01405485  0.68841477  0.55470997  1
  C  C859  1  0.18579755  0.74554665  0.71504781  1
  C  C860  1  0.17097023  0.74645694  0.67562254  1
  H  H861  1  0.24334347  0.57462665  0.54699982  1
  O  O862  1  0.06598234  0.51707509  0.58712783  1
  C  C863  1  0.24620310  0.57673600  0.60988894  1
  C  C864  1  0.15966108  0.74971359  0.54150534  1
  H  H865  1  0.00360925  0.68176673  0.72192862  1
  H  H866  1  0.00747851  0.72648385  0.54383509  1
  H  H867  1  0.24629851  0.57349809  0.67066085  1
  H  H868  1  0.25364952  0.73361781  0.56331913  1
  C  C869  1  0.26341046  0.57697264  0.57284686  1
  C  C870  1  0.26647964  0.57370435  0.64482007  1
  H  H871  1  0.45313606  0.58866685  0.66480590  1
  N  N872  1  0.43086157  0.62311631  0.57338800  1
  H  H873  1  0.45566619  0.70110487  0.71089211  1
  N  N874  1  0.37218852  0.68377841  0.66355531  1
  N  N875  1  0.38828433  0.65260314  0.64388764  1
  C  C876  1  0.33097852  0.57576780  0.67563951  1
  N  N877  1  0.31180538  0.72096582  0.52919779  1
  H  H878  1  0.35815007  0.57711592  0.60472369  1
  O  O879  1  0.31329914  0.58371836  0.70731815  1
  N  N880  1  0.41055545  0.67323089  0.59966088  1
  Cu  Cu881  1  0.37651886  0.70796883  0.57027898  1
  Cu  Cu882  1  0.34740708  0.66676091  0.71433535  1
  C  C883  1  0.46419925  0.54796084  0.61055032  1
  C  C884  1  0.44442388  0.59131648  0.59147782  1
  C  C885  1  0.31871551  0.57848388  0.52734790  1
  C  C886  1  0.32528009  0.57592236  0.60436194  1
  C  C887  1  0.30296055  0.57698049  0.57079962  1
  O  O888  1  0.36559798  0.56202133  0.67424353  1
  C  C889  1  0.46576505  0.55360243  0.65154437  1
  C  C890  1  0.30676505  0.57753130  0.64029266  1
  Cu  Cu891  1  0.41201422  0.55943750  0.70611881  1
  O  O892  1  0.35280675  0.58190647  0.52707610  1
  O  O893  1  0.46083667  0.55814214  0.72887908  1
  N  N894  1  0.39265914  0.62788493  0.73313419  1
  Cu  Cu895  1  0.44104545  0.72984162  0.60202563  1
  C  C896  1  0.48201439  0.51713788  0.67356793  1
  C  C897  1  0.48402842  0.52527381  0.71568653  1
  N  N898  1  0.31328676  0.74696961  0.71705733  1
  C  C899  1  0.45997571  0.73937462  0.72406574  1
  C  C900  1  0.48034138  0.50247988  0.59278475  1
  N  N901  1  0.34120903  0.74414615  0.53573961  1
  H  H902  1  0.08236024  0.75385920  0.74701413  1
  C  C903  1  0.22631423  0.75243191  0.56408736  1
  N  N904  1  0.04545892  0.97675497  0.62004512  1
  H  H905  1  0.17589213  0.97374569  0.63865501  1
  N  N906  1  0.07632521  0.77850424  0.67541974  1
  N  N907  1  0.03013862  0.79365642  0.62562077  1
  H  H908  1  0.06922116  0.92302438  0.52462836  1
  H  H909  1  0.14274081  0.79209052  0.62925909  1
  C  C910  1  0.15372157  0.79077114  0.65885659  1
  C  C911  1  0.15366505  0.79796640  0.55806206  1
  C  C912  1  0.21970294  0.80452331  0.57514495  1
  C  C913  1  0.01172470  0.86596920  0.55091196  1
  O  O914  1  0.08911291  0.79169809  0.53265047  1
  C  C915  1  0.11328328  0.81746996  0.55146488  1
  O  O916  1  0.10498550  0.86076982  0.56369852  1
  C  C917  1  0.18298682  0.82677605  0.57325473  1
  O  O918  1  0.03069642  0.89153545  0.57681544  1
  Cu  Cu919  1  0.07538659  0.88384174  0.60792500  1
  O  O920  1  0.12262575  0.88863367  0.63413491  1
  H  H921  1  0.17712614  0.86734855  0.57915950  1
  C  C922  1  0.13223954  0.87941613  0.67115759  1
  O  O923  1  0.12583438  0.90921915  0.69607877  1
  C  C924  1  0.14923974  0.83105297  0.68471427  1
  C  C925  1  0.16092381  0.82914953  0.72358610  1
  N  N926  1  0.05665948  0.81762026  0.64111130  1
  C  C927  1  0.17826374  0.78632736  0.73813223  1
  N  N928  1  0.12631360  0.98216438  0.57423439  1
  H  H929  1  0.15505101  0.86321397  0.74136161  1
  C  C930  1  0.02068340  0.87292307  0.50856997  1
  C  C931  1  0.24723748  0.99904248  0.65512651  1
  O  O932  1  0.00508492  0.78335155  0.72810180  1
  O  O933  1  0.24015617  0.96903080  0.63023985  1
  N  N934  1  0.03329046  0.98128649  0.65363642  1
  N  N935  1  0.09346320  0.98792876  0.62062381  1
  C  C936  1  0.05221923  0.90363806  0.50003977  1
  N  N937  1  0.35168563  0.99466644  0.54914709  1
  C  C938  1  0.48141321  0.88097665  0.54910980  1
  H  H939  1  0.46725033  0.91669643  0.55293282  1
  O  O940  1  0.34816946  0.80597625  0.61247737  1
  N  N941  1  0.34906985  0.90148553  0.60396556  1
  C  C942  1  0.41930310  0.84193548  0.53961980  1
  H  H943  1  0.46232441  0.75501826  0.52644258  1
  O  O944  1  0.40128757  0.80004457  0.53084695  1
  Cu  Cu945  1  0.39062093  0.85062283  0.61459390  1
  N  N946  1  0.38366289  0.93897828  0.72734654  1
  Cu  Cu947  1  0.35238109  0.84432613  0.70545974  1
  Cu  Cu948  1  0.36843202  0.96632311  0.60703522  1
  N  N949  1  0.35384338  0.98797047  0.65848714  1
  C  C950  1  0.46172573  0.83640954  0.53932268  1
  N  N951  1  0.43558436  0.98124429  0.59526445  1
  Cu  Cu952  1  0.33218573  0.95747105  0.70350028  1
  C  C953  1  0.25070259  0.82989341  0.59463356  1
  O  O954  1  0.40279391  0.88031867  0.54775894  1
  N  N955  1  0.39041557  0.89437530  0.72579162  1
  C  C956  1  0.45212522  0.78436113  0.70244444  1
  Cu  Cu957  1  0.32444530  0.84591197  0.57312056  1
  C  C958  1  0.45802301  0.83072059  0.72134456  1
  N  N959  1  0.29649837  0.76701908  0.74434023  1
  N  N960  1  0.49182029  0.96154604  0.61476753  1
  N  N961  1  0.42934282  0.93524368  0.63148339  1
  H  H962  1  0.44715443  0.86438946  0.70581006  1
  N  N963  1  0.31537744  0.89248860  0.68172254  1
  Cu  Cu964  1  0.36317991  0.75714591  0.64336716  1
  N  N965  1  0.31519175  0.98027276  0.51617324  1
  N  N966  1  0.32848987  0.78963959  0.68285273  1
  C  C967  1  0.43421882  0.78566760  0.66422342  1
  N  N968  1  0.42039813  0.78532910  0.63327469  1
  C  C969  1  0.47155113  0.98980674  0.58853320  1
  Cu  Cu970  1  0.28731276  0.83161517  0.67033426  1
  C  C971  1  0.47963827  0.78949807  0.53216494  1
  N  N972  1  0.46202042  0.92175901  0.63986439  1
  N  N973  1  0.27643321  0.84901972  0.60886801  1
  Cu  Cu974  1  0.30120617  0.91869509  0.63056719  1
  C  C975  1  0.07370573  0.71555912  0.95648051  1
  H  H976  1  0.09771636  0.69797738  0.94327844  1
  O  O977  1  0.17340891  0.52168480  0.83544117  1
  C  C978  1  0.22238567  0.58719047  0.83033369  1
  O  O979  1  0.17980903  0.56422997  0.78141373  1
  C  C980  1  0.19094252  0.55462963  0.81641559  1
  H  H981  1  0.21969261  0.55821735  0.88997311  1
  C  C982  1  0.11037885  0.69893542  0.80675133  1
  O  O983  1  0.11556201  0.67057093  0.83356989  1
  C  C984  1  0.23494086  0.58439318  0.86938741  1
  H  H985  1  0.11447762  0.59893599  0.77741902  1
  H  H986  1  0.22967346  0.61800959  0.77426235  1
  O  O987  1  0.03711043  0.59654393  0.87505931  1
  C  C988  1  0.10069249  0.67879596  0.76672269  1
  O  O989  1  0.18704472  0.65903198  0.97040647  1
  O  O990  1  0.03198514  0.54319660  0.92267317  1
  C  C991  1  0.02114573  0.58023946  0.90514115  1
  C  C992  1  0.18363652  0.70723285  0.97153863  1
  C  C993  1  0.05791405  0.69064903  0.98772111  1
  O  O994  1  0.09940268  0.62244801  0.98417584  1
  O  O995  1  0.15379552  0.72887127  0.96706247  1
  C  C996  1  0.21808127  0.73953270  0.97932144  1
  C  C997  1  0.24298675  0.61832119  0.80553682  1
  C  C998  1  0.10281126  0.62815306  0.75917572  1
  O  O999  1  0.20533801  0.74185141  0.79156887  1
  O  O1000  1  0.10507671  0.74633060  0.81080372  1
  Cu  Cu1001  1  0.15085426  0.61901696  0.99680118  1
  C  C1002  1  0.25372044  0.71777453  0.98272156  1
  H  H1003  1  0.26179599  0.67949426  0.97373556  1
  O  O1004  1  0.26203581  0.59046813  0.94390111  1
  N  N1005  1  0.44929983  0.67385584  0.87568361  1
  O  O1006  1  0.31369582  0.54320661  0.81656236  1
  Cu  Cu1007  1  0.33180391  0.53402313  0.92511969  1
  C  C1008  1  0.47449390  0.54328450  0.91819101  1
  C  C1009  1  0.26628411  0.61397950  0.88008775  1
  Cu  Cu1010  1  0.34189112  0.62103791  0.97534163  1
  Cu  Cu1011  1  0.44929308  0.60424334  0.78770362  1
  C  C1012  1  0.27511605  0.64698193  0.81585515  1
  O  O1013  1  0.31246600  0.63924119  0.93244251  1
  N  N1014  1  0.37863009  0.57929148  0.94074120  1
  O  O1015  1  0.41799780  0.55074289  0.80563471  1
  C  C1016  1  0.27992956  0.61352997  0.92096566  1
  C  C1017  1  0.28908814  0.64188748  0.85431375  1
  H  H1018  1  0.31511909  0.66501273  0.86446148  1
  O  O1019  1  0.34445837  0.54739125  0.87517897  1
  Cu  Cu1020  1  0.41178473  0.63595988  0.92781235  1
  N  N1021  1  0.38244070  0.68593226  0.86311761  1
  N  N1022  1  0.40720592  0.65655512  0.85168319  1
  N  N1023  1  0.28335682  0.72379039  0.78027256  1
  C  C1024  1  0.29331379  0.67500911  0.77993717  1
  Cu  Cu1025  1  0.39608495  0.55517921  0.88625809  1
  C  C1026  1  0.44283078  0.71744765  0.89320193  1
  O  O1027  1  0.44796499  0.56238282  0.89679420  1
  N  N1028  1  0.43630242  0.62896628  0.97613001  1
  N  N1029  1  0.40307734  0.72671790  0.89559595  1
  C  C1030  1  0.32344833  0.72161098  0.99358176  1
  Cu  Cu1031  1  0.41239669  0.56152794  0.98286491  1
  O  O1032  1  0.32056045  0.51551173  0.97380547  1
  O  O1033  1  0.46960808  0.52243752  0.94965839  1
  C  C1034  1  0.40317376  0.51723315  0.78419182  1
  C  C1035  1  0.48816955  0.70198096  0.78447115  1
  O  O1036  1  0.47960575  0.65609287  0.77132611  1
  C  C1037  1  0.32386368  0.52463920  0.84561158  1
  Cu  Cu1038  1  0.33511199  0.58276515  0.75568321  1
  N  N1039  1  0.40426300  0.64327208  0.76356739  1
  N  N1040  1  0.35061607  0.69817789  0.99079592  1
  O  O1041  1  0.39085623  0.52569219  0.75021675  1
  N  N1042  1  0.31675572  0.65151301  0.75546363  1
  C  C1043  1  0.28637383  0.74629523  0.99559088  1
  C  C1044  1  0.47817186  0.74694397  0.75916283  1
  C  C1045  1  0.47590465  0.74786243  0.91186081  1
  Cu  Cu1046  1  0.47403608  0.67971689  0.99600917  1
  C  C1047  1  0.05862229  0.76200865  0.94307742  1
  C  C1048  1  0.01416646  0.75852488  0.99567766  1
  O  O1049  1  0.10631323  0.76273831  0.89173033  1
  C  C1050  1  0.00851034  0.98010385  0.93249217  1
  H  H1051  1  0.10911685  0.97981614  0.92543642  1
  C  C1052  1  0.04634598  0.96584191  0.93847266  1
  C  C1053  1  0.18664871  0.77934887  0.78044267  1
  Cu  Cu1054  1  0.13633014  0.78397300  0.84738501  1
  C  C1055  1  0.02959048  0.78394981  0.96186631  1
  C  C1056  1  0.07543872  0.78439636  0.90565528  1
  O  O1057  1  0.06198536  0.82242675  0.89512701  1
  O  O1058  1  0.17566987  0.81389038  0.88379978  1
  H  H1059  1  0.01721353  0.82140798  0.95363240  1
  H  H1060  1  0.18260930  0.89631201  0.90948586  1
  C  C1061  1  0.21377954  0.90210866  0.90403012  1
  O  O1062  1  0.16738332  0.80572904  0.80418972  1
  C  C1063  1  0.21093281  0.81614308  0.87978742  1
  C  C1064  1  0.23003670  0.94935963  0.90905637  1
  C  C1065  1  0.05795792  0.92072123  0.96224603  1
  O  O1066  1  0.09198391  0.90812477  0.96067492  1
  C  C1067  1  0.23574461  0.86055264  0.88999677  1
  C  C1068  1  0.21156260  0.79103957  0.98709326  1
  H  H1069  1  0.18252715  0.80951200  0.98404911  1
  O  O1070  1  0.03351529  0.90073330  0.98598946  1
  O  O1071  1  0.23148626  0.77903746  0.86881115  1
  O  O1072  1  0.20402633  0.88639324  0.99693161  1
  C  C1073  1  0.19950383  0.98916393  0.91738067  1
  O  O1074  1  0.16692271  0.97581814  0.91662698  1
  C  C1075  1  0.24423298  0.81935168  0.99616596  1
  C  C1076  1  0.07794677  0.99051473  0.92010084  1
  C  C1077  1  0.32746840  0.95532476  0.99344598  1
  O  O1078  1  0.48369369  0.89872981  0.80801881  1
  N  N1079  1  0.34579226  0.94538271  0.84891136  1
  N  N1080  1  0.36814953  0.90283928  0.89801629  1
  H  H1081  1  0.28322316  0.99234425  0.90271769  1
  Cu  Cu1082  1  0.25129864  0.75611056  0.82305808  1
  O  O1083  1  0.46458243  0.92574535  0.75167219  1
  N  N1084  1  0.41536259  0.93836268  0.89908091  1
  H  H1085  1  0.43951374  0.79057934  0.95084717  1
  H  H1086  1  0.30050917  0.94524026  0.97952087  1
  N  N1087  1  0.38566114  0.78655681  0.89403556  1
  N  N1088  1  0.30098239  0.93033308  0.77452381  1
  C  C1089  1  0.48722221  0.79231066  0.77837728  1
  C  C1090  1  0.29186432  0.91262907  0.89320910  1
  Cu  Cu1091  1  0.42880477  0.97630939  0.75560112  1
  C  C1092  1  0.47439379  0.83512003  0.75763012  1
  C  C1093  1  0.26936152  0.95396487  0.90298734  1
  N  N1094  1  0.42670042  0.95988051  0.87024113  1
  C  C1095  1  0.36591008  0.87486393  0.97239567  1
  H  H1096  1  0.29162503  0.83117732  0.87470095  1
  C  C1097  1  0.47485590  0.88922522  0.77540906  1
  C  C1098  1  0.49248497  0.84088107  0.99276136  1
  C  C1099  1  0.36287406  0.92835455  0.98856585  1
  N  N1100  1  0.31019313  0.96344272  0.81558459  1
  N  N1101  1  0.36646996  0.86045815  0.93645351  1
  C  C1102  1  0.27590224  0.86449016  0.88640571  1
  N  N1103  1  0.28280878  0.95888510  0.75328610  1
  N  N1104  1  0.38246316  0.79675641  0.92819579  1
  C  C1105  1  0.47002015  0.78261808  0.94149697  1
  Cu  Cu1106  1  0.39586301  0.94909585  0.82358816  1
  C  C1107  1  0.33510988  0.92038421  0.88099006  1
  H  H1108  1  0.42570578  0.92875173  0.99795518  1
  N  N1109  1  0.36804139  0.84271396  0.99913409  1
  C  C1110  1  0.60593880  0.04204688  0.17340700  1
  C  C1111  1  0.58856819  0.08929714  0.17810090  1
  C  C1112  1  0.56246824  0.10561691  0.20660189  1
  C  C1113  1  0.59835867  0.13014552  0.14720828  1
  O  O1114  1  0.61881516  0.12059587  0.11986656  1
  O  O1115  1  0.58964117  0.17563384  0.15693945  1
  O  O1116  1  0.65188133  0.19651221  0.20751106  1
  C  C1117  1  0.71068543  0.11889739  0.21831920  1
  Cu  Cu1118  1  0.63235563  0.21974191  0.15992433  1
  H  H1119  1  0.54787422  0.14220833  0.20951926  1
  C  C1120  1  0.53904037  0.06293723  0.01337476  1
  O  O1121  1  0.71882310  0.13020499  0.02452775  1
  H  H1122  1  0.62506198  0.03704957  0.14972987  1
  H  H1123  1  0.71952063  0.14929014  0.19793274  1
  C  C1124  1  0.67349067  0.11797538  0.23546694  1
  C  C1125  1  0.52204767  0.06882965  0.05079296  1
  H  H1126  1  0.52202510  0.03836965  0.07209946  1
  C  C1127  1  0.64599200  0.16114435  0.23157311  1
  H  H1128  1  0.68746036  0.05431057  0.01308888  1
  C  C1129  1  0.55724753  0.01477155  0.00493899  1
  C  C1130  1  0.73456256  0.07861250  0.22622150  1
  C  C1131  1  0.55417186  0.06872125  0.23388800  1
  C  C1132  1  0.57001720  0.02145218  0.23105319  1
  C  C1133  1  0.59673972  0.00666114  0.20141473  1
  C  C1134  1  0.50600911  0.11567345  0.05933965  1
  C  C1135  1  0.71361678  0.03546248  0.00370006  1
  N  N1136  1  0.72341378  0.02273034  0.14269977  1
  C  C1137  1  0.72338326  0.03609772  0.24637199  1
  C  C1138  1  0.50419990  0.15405893  0.03241434  1
  C  C1139  1  0.74815193  0.11507808  0.01119903  1
  C  C1140  1  0.74875500  0.06137031  0.00079097  1
  O  O1141  1  0.71018538  0.23988454  0.10986157  1
  N  N1142  1  0.61763052  0.24972811  0.00681473  1
  C  C1143  1  0.99895006  0.07621056  0.22091638  1
  C  C1144  1  0.99495943  0.09588038  0.08654061  1
  C  C1145  1  0.77657788  0.07833900  0.20997894  1
  C  C1146  1  0.90880134  0.03192897  0.01898528  1
  N  N1147  1  0.83551604  0.05964359  0.17043790  1
  N  N1148  1  0.79326367  0.03825816  0.19219402  1
  C  C1149  1  0.84489487  0.05764027  0.04046296  1
  H  H1150  1  0.81736341  0.07961775  0.03929964  1
  C  C1151  1  0.87647125  0.06346931  0.01391152  1
  C  C1152  1  0.95919940  0.14168354  0.13777370  1
  O  O1153  1  0.94860948  0.18736779  0.14966777  1
  O  O1154  1  0.87244304  0.20268540  0.22060718  1
  Cu  Cu1155  1  0.79353029  0.19442626  0.04666965  1
  N  N1156  1  0.84021986  0.10156664  0.18407445  1
  N  N1157  1  0.79984550  0.11694740  0.21298449  1
  H  H1158  1  0.82583152  0.21649937  0.16920980  1
  Cu  Cu1159  1  0.91160279  0.19935389  0.18426988  1
  O  O1160  1  0.95277857  0.10348186  0.15352835  1
  H  H1161  1  0.97378889  0.22168050  0.08828299  1
  C  C1162  1  0.98624823  0.18596745  0.07868978  1
  N  N1163  1  0.90857537  0.22394434  0.03339972  1
  O  O1164  1  0.77787044  0.14769717  0.00794429  1
  O  O1165  1  0.80456662  0.24167062  0.00311278  1
  C  C1166  1  0.98080743  0.14262969  0.10003231  1
  C  C1167  1  0.85809007  0.24034295  0.23594894  1
  O  O1168  1  0.78056142  0.02738873  0.08139252  1
  C  C1169  1  0.80894568  0.00214439  0.08383947  1
  C  C1170  1  0.84713083  0.01708214  0.06670042  1
  N  N1171  1  0.87862528  0.23892865  0.04794647  1
  C  C1172  1  0.96462121  0.07530390  0.24056878  1
  H  H1173  1  0.99401348  0.06053987  0.10315991  1
  C  C1174  1  0.93925099  0.02857337  0.24079352  1
  H  H1175  1  0.93451669  0.03435005  0.00053838  1
  N  N1176  1  0.56562709  0.25326636  0.00692319  1
  O  O1177  1  0.70478776  0.49272801  0.06299722  1
  C  C1178  1  0.67787272  0.49487509  0.03842291  1
  C  C1179  1  0.50458619  0.44616852  0.14963039  1
  N  N1180  1  0.62631471  0.26999989  0.03768399  1
  O  O1181  1  0.66992780  0.26469585  0.15661319  1
  H  H1182  1  0.51908817  0.27029808  0.11302340  1
  C  C1183  1  0.69716410  0.27211089  0.13051738  1
  C  C1184  1  0.55392740  0.27016892  0.04116453  1
  N  N1185  1  0.68929617  0.46714505  0.21245843  1
  C  C1186  1  0.53336786  0.47734047  0.16882508  1
  H  H1187  1  0.54160725  0.47073472  0.19955725  1
  C  C1188  1  0.51147682  0.27862240  0.05193218  1
  H  H1189  1  0.65944542  0.42943680  0.10049758  1
  N  N1190  1  0.58402277  0.27782042  0.06401756  1
  N  N1191  1  0.58449408  0.31579992  0.11092456  1
  N  N1192  1  0.59651370  0.38028536  0.14936253  1
  C  C1193  1  0.59345759  0.36535322  0.11226782  1
  N  N1194  1  0.57804875  0.33387434  0.17875482  1
  C  C1195  1  0.70939703  0.32559364  0.12730891  1
  C  C1196  1  0.69590581  0.36093548  0.15365056  1
  N  N1197  1  0.57608088  0.29565312  0.15864917  1
  C  C1198  1  0.71094086  0.41093240  0.15462847  1
  H  H1199  1  0.67392826  0.35039886  0.17459289  1
  C  C1200  1  0.60503782  0.40104305  0.07688974  1
  C  C1201  1  0.63803783  0.43207772  0.07656977  1
  C  C1202  1  0.69881493  0.44225777  0.18702767  1
  C  C1203  1  0.73607490  0.33972548  0.09865176  1
  H  H1204  1  0.55244099  0.37579866  0.04909246  1
  C  C1205  1  0.57753953  0.39931693  0.04708615  1
  C  C1206  1  0.64396915  0.46202330  0.04378848  1
  C  C1207  1  0.73808449  0.42570443  0.12578320  1
  C  C1208  1  0.58614097  0.42960978  0.01469382  1
  C  C1209  1  0.61731524  0.46168925  0.01231580  1
  H  H1210  1  0.74703572  0.30925866  0.07965102  1
  C  C1211  1  0.74904948  0.38937287  0.09874575  1
  H  H1212  1  0.74895454  0.46329630  0.12149021  1
  Cu  Cu1213  1  0.67216066  0.27121400  0.23791898  1
  O  O1214  1  0.63451004  0.31988899  0.24086385  1
  C  C1215  1  0.64410077  0.36350844  0.24942800  1
  C  C1216  1  0.90118631  0.48513608  0.11036123  1
  N  N1217  1  0.94078926  0.27334970  0.03945763  1
  N  N1218  1  0.88586551  0.29942424  0.06704619  1
  O  O1219  1  0.78495438  0.45421542  0.06489398  1
  C  C1220  1  0.82335815  0.32258859  0.22799875  1
  C  C1221  1  0.98947854  0.37427737  0.22969324  1
  C  C1222  1  0.92676338  0.44962558  0.09094946  1
  C  C1223  1  0.80574584  0.29093216  0.15046840  1
  O  O1224  1  0.86769742  0.47821141  0.11751053  1
  C  C1225  1  0.83183244  0.27455178  0.21296000  1
  H  H1226  1  0.88216279  0.39039251  0.08759269  1
  H  H1227  1  0.99844006  0.35727875  0.04522142  1
  C  C1228  1  0.96551622  0.46700465  0.08672401  1
  N  N1229  1  0.93474616  0.31600644  0.21820180  1
  C  C1230  1  0.79883880  0.41002489  0.21275422  1
  Cu  Cu1231  1  0.82496056  0.29531591  0.03816047  1
  C  C1232  1  0.77561229  0.40690100  0.06602742  1
  C  C1233  1  0.91157303  0.40126942  0.08122833  1
  O  O1234  1  0.78819995  0.44030353  0.18958745  1
  C  C1235  1  0.79939648  0.27343320  0.11152189  1
  N  N1236  1  0.98690147  0.27417018  0.01628051  1
  H  H1237  1  0.78105147  0.36716908  0.14373533  1
  C  C1238  1  0.81930064  0.25525739  0.17820781  1
  N  N1239  1  0.96312965  0.28924493  0.22320889  1
  N  N1240  1  0.79433037  0.26052963  0.08040583  1
  C  C1241  1  0.98872288  0.43316328  0.06793870  1
  N  N1242  1  0.95210751  0.37485219  0.22392800  1
  C  C1243  1  0.92139493  0.31222380  0.05518051  1
  C  C1244  1  0.80631284  0.35544257  0.20099277  1
  C  C1245  1  0.97695615  0.38371941  0.05946490  1
  O  O1246  1  0.78845283  0.37607832  0.04297293  1
  C  C1247  1  0.79604725  0.34052630  0.16347979  1
  C  C1248  1  0.93867179  0.36702450  0.06636468  1
  H  H1249  1  0.53722032  0.08725459  0.46471014  1
  Cu  Cu1250  1  0.59983910  0.20666503  0.28704310  1
  N  N1251  1  0.68687200  0.20370719  0.30527148  1
  O  O1252  1  0.52878607  0.21544175  0.29555241  1
  C  C1253  1  0.70661701  0.22043922  0.32875215  1
  C  C1254  1  0.52681593  0.07141027  0.27182179  1
  H  H1255  1  0.62980783  0.07525581  0.26738669  1
  N  N1256  1  0.52410411  0.04089423  0.30141593  1
  N  N1257  1  0.65007441  0.24366135  0.28519973  1
  C  C1258  1  0.68432650  0.03514957  0.26028500  1
  C  C1259  1  0.73404568  0.23833904  0.35893122  1
  C  C1260  1  0.52347745  0.06869845  0.49056748  1
  O  O1261  1  0.70083618  0.06940288  0.47451675  1
  C  C1262  1  0.72820968  0.03505610  0.47635689  1
  C  C1263  1  0.66056892  0.07727774  0.25768507  1
  H  H1264  1  0.74265079  0.00474083  0.25473457  1
  O  O1265  1  0.61740231  0.15988166  0.25346840  1
  C  C1266  1  0.97893212  0.00700601  0.34591869  1
  H  H1267  1  0.75137370  0.13241245  0.48507922  1
  C  C1268  1  0.97282047  0.01739598  0.38563624  1
  O  O1269  1  0.97007315  0.04714797  0.46237316  1
  H  H1270  1  0.92499433  0.11301729  0.28379624  1
  O  O1271  1  0.93366972  0.18781030  0.32090957  1
  C  C1272  1  0.96452317  0.19556912  0.29865738  1
  H  H1273  1  0.77938207  0.19870594  0.32765329  1
  O  O1274  1  0.84925496  0.19586053  0.34581782  1
  C  C1275  1  0.99000300  0.07630409  0.44216103  1
  C  C1276  1  0.97521483  0.15795663  0.26755596  1
  C  C1277  1  0.77183527  0.22176867  0.35281348  1
  C  C1278  1  0.83962401  0.21414164  0.37860930  1
  C  C1279  1  0.79978770  0.23145535  0.38220787  1
  Cu  Cu1280  1  0.88928245  0.22206355  0.31478244  1
  O  O1281  1  0.86579347  0.22210981  0.40386925  1
  C  C1282  1  0.95164973  0.11503857  0.26459567  1
  C  C1283  1  0.76756318  0.05585209  0.48145327  1
  C  C1284  1  0.99235385  0.05832425  0.40122062  1
  C  C1285  1  0.79884908  0.02297116  0.48405060  1
  O  O1286  1  0.98869364  0.22539484  0.30584900  1
  O  O1287  1  0.90801008  0.03102948  0.25625630  1
  C  C1288  1  0.77522543  0.10739858  0.48673545  1
  H  H1289  1  0.87176070  0.10852617  0.49745961  1
  C  C1290  1  0.84436834  0.09154195  0.49230252  1
  C  C1291  1  0.81248287  0.12417523  0.49479242  1
  C  C1292  1  0.83817483  0.03903577  0.48723697  1
  C  C1293  1  0.54268670  0.25009951  0.31408151  1
  O  O1294  1  0.57939201  0.25406781  0.31940708  1
  H  H1295  1  0.74065379  0.49635412  0.44335496  1
  C  C1296  1  0.50201632  0.37395409  0.35603041  1
  C  C1297  1  0.71924080  0.26610591  0.39167272  1
  C  C1298  1  0.50358857  0.39040894  0.26128125  1
  O  O1299  1  0.68140296  0.28066568  0.39162545  1
  N  N1300  1  0.66471066  0.49203169  0.32546867  1
  C  C1301  1  0.51577975  0.29124647  0.32795018  1
  C  C1302  1  0.58425776  0.48022587  0.27738678  1
  Cu  Cu1303  1  0.67301965  0.47250820  0.42891388  1
  O  O1304  1  0.62157669  0.46044859  0.41103343  1
  N  N1305  1  0.69288597  0.44728775  0.34920228  1
  Cu  Cu1306  1  0.57161333  0.45769691  0.42288813  1
  N  N1307  1  0.65582897  0.36322079  0.33764073  1
  N  N1308  1  0.67111340  0.40103050  0.45268396  1
  N  N1309  1  0.65026131  0.37567511  0.43310936  1
  Cu  Cu1310  1  0.65220978  0.29946239  0.31005499  1
  O  O1311  1  0.55478071  0.41213367  0.38885030  1
  C  C1312  1  0.52772917  0.33480600  0.34724893  1
  H  H1313  1  0.55782057  0.33543336  0.35613110  1
  Cu  Cu1314  1  0.63034898  0.40568710  0.38324695  1
  C  C1315  1  0.51960729  0.41409357  0.37906468  1
  N  N1316  1  0.68698714  0.38206293  0.33170977  1
  H  H1317  1  0.68121259  0.30353848  0.41487426  1
  O  O1318  1  0.70526564  0.30601009  0.47086656  1
  C  C1319  1  0.72038619  0.46922078  0.37032913  1
  H  H1320  1  0.64620276  0.46595431  0.27037815  1
  C  C1321  1  0.61659489  0.45139859  0.26962345  1
  Cu  Cu1322  1  0.70337575  0.44065886  0.26876570  1
  H  H1323  1  0.52101545  0.48393060  0.28141625  1
  C  C1324  1  0.54656800  0.46089295  0.27502810  1
  C  C1325  1  0.61221673  0.40034291  0.25962935  1
  C  C1326  1  0.54312491  0.41033875  0.26548516  1
  C  C1327  1  0.57647466  0.37968810  0.25891956  1
  C  C1328  1  0.73684211  0.28885828  0.46042476  1
  C  C1329  1  0.74820271  0.27060575  0.42169202  1
  O  O1330  1  0.50106088  0.34223798  0.25421847  1
  Cu  Cu1331  1  0.69736549  0.36467747  0.49955938  1
  H  H1332  1  0.57104512  0.33993314  0.25164836  1
  O  O1333  1  0.67756863  0.37885597  0.25417005  1
  H  H1334  1  0.83151902  0.33498149  0.25838764  1
  C  C1335  1  0.99837116  0.45858221  0.26000916  1
  H  H1336  1  0.80719848  0.26015359  0.44096544  1
  N  N1337  1  0.90125968  0.28444606  0.35159460  1
  C  C1338  1  0.78654520  0.25487994  0.41587368  1
  N  N1339  1  0.91089311  0.32081387  0.33485507  1
  H  H1340  1  0.97172224  0.48928954  0.44055596  1
  C  C1341  1  0.75303928  0.44423872  0.39567394  1
  N  N1342  1  0.93434354  0.33924300  0.46063937  1
  C  C1343  1  0.93612998  0.48572906  0.49369920  1
  H  H1344  1  0.77260919  0.38760980  0.35525862  1
  O  O1345  1  0.76571980  0.28854606  0.48378683  1
  C  C1346  1  0.98382750  0.43158556  0.35462575  1
  C  C1347  1  0.77969554  0.40935379  0.38179704  1
  O  O1348  1  0.96050081  0.39868680  0.34291045  1
  H  H1349  1  0.84771356  0.40819295  0.45787405  1
  Cu  Cu1350  1  0.91824305  0.37644515  0.37380461  1
  O  O1351  1  0.86844255  0.25455054  0.26991643  1
  C  C1352  1  0.93216989  0.42711247  0.48682321  1
  O  O1353  1  0.79857888  0.41303097  0.25120473  1
  C  C1354  1  0.82205282  0.42091100  0.44079986  1
  Cu  Cu1355  1  0.77472938  0.47001478  0.27503083  1
  N  N1356  1  0.95241796  0.39826560  0.46096316  1
  H  H1357  1  0.96893808  0.45445825  0.27058456  1
  N  N1358  1  0.90742614  0.33918499  0.48369391  1
  C  C1359  1  0.83649828  0.36066807  0.38474467  1
  O  O1360  1  0.82893230  0.34307005  0.35389139  1
  C  C1361  1  0.79815312  0.48378511  0.48936651  1
  C  C1362  1  0.76142538  0.46687420  0.43116762  1
  Cu  Cu1363  1  0.89356583  0.28324768  0.41197900  1
  O  O1364  1  0.87348320  0.35278738  0.40060509  1
  C  C1365  1  0.79458912  0.45570309  0.45331786  1
  O  O1366  1  0.97446635  0.46761869  0.37610130  1
  C  C1367  1  0.81092941  0.39878930  0.40599362  1
  H  H1368  1  0.69454727  0.18291641  0.65900242  1
  O  O1369  1  0.68058848  0.07966629  0.55317178  1
  O  O1370  1  0.72683409  0.09678105  0.64901418  1
  Cu  Cu1371  1  0.70412416  0.09053740  0.60067452  1
  Cu  Cu1372  1  0.68441515  0.06097727  0.67320555  1
  H  H1373  1  0.54837712  0.06622002  0.71589591  1
  C  C1374  1  0.58108666  0.08855123  0.53210142  1
  C  C1375  1  0.54177152  0.07003643  0.52653932  1
  O  O1376  1  0.59484161  0.09285598  0.56547806  1
  C  C1377  1  0.62709205  0.04356639  0.71889094  1
  C  C1378  1  0.65334199  0.22067608  0.71768058  1
  C  C1379  1  0.70318489  0.22259922  0.66456493  1
  O  O1380  1  0.73640382  0.17840300  0.60097165  1
  C  C1381  1  0.74426412  0.22430844  0.60666417  1
  Cu  Cu1382  1  0.63885600  0.05290354  0.57608780  1
  N  N1383  1  0.67478860  0.02878083  0.62057323  1
  C  C1384  1  0.52346487  0.05027513  0.56024756  1
  H  H1385  1  0.53753922  0.04999832  0.58897007  1
  C  C1386  1  0.55572008  0.02710719  0.70988712  1
  N  N1387  1  0.61740688  0.23863261  0.71612129  1
  C  C1388  1  0.59294636  0.01009780  0.71251120  1
  O  O1389  1  0.62635659  0.08818367  0.71391297  1
  O  O1390  1  0.65700695  0.01715186  0.73157955  1
  N  N1391  1  0.72569490  0.00780135  0.67915681  1
  Cu  Cu1392  1  0.65698812  0.07965267  0.50661578  1
  N  N1393  1  0.58747567  0.19830466  0.74369590  1
  O  O1394  1  0.50199960  0.20071691  0.67799678  1
  C  C1395  1  0.68608523  0.24972837  0.69481279  1
  O  O1396  1  0.51333660  0.24332952  0.62311177  1
  Cu  Cu1397  1  0.50874870  0.24696492  0.71957343  1
  N  N1398  1  0.65612493  0.18394162  0.74547461  1
  O  O1399  1  0.60146161  0.09511092  0.50180703  1
  Cu  Cu1400  1  0.75717621  0.07061412  0.68685325  1
  Cu  Cu1401  1  0.76557706  0.13518848  0.62772630  1
  C  C1402  1  0.81840348  0.02275449  0.72624135  1
  N  N1403  1  0.77879105  0.03117430  0.58256879  1
  O  O1404  1  0.78366319  0.04122094  0.73067958  1
  C  C1405  1  0.91723619  0.16898011  0.56165405  1
  C  C1406  1  0.88017885  0.19153839  0.61739599  1
  N  N1407  1  0.82996521  0.13257406  0.64961939  1
  N  N1408  1  0.82632711  0.08466913  0.61291779  1
  N  N1409  1  0.79613886  0.13581800  0.68874398  1
  C  C1410  1  0.92998998  0.13226868  0.53365285  1
  N  N1411  1  0.80243031  0.17809944  0.70148378  1
  N  N1412  1  0.78522343  0.07624940  0.58311715  1
  C  C1413  1  0.89100825  0.15460401  0.59168358  1
  H  H1414  1  0.88008118  0.11682018  0.59328614  1
  N  N1415  1  0.83746405  0.20730978  0.67485780  1
  C  C1416  1  0.96830278  0.08749706  0.67122085  1
  C  C1417  1  0.84251795  0.03742100  0.62045041  1
  O  O1418  1  0.95870712  0.12872117  0.66049736  1
  C  C1419  1  0.94288964  0.04336558  0.66274773  1
  C  C1420  1  0.90742413  0.05952319  0.64666407  1
  C  C1421  1  0.84881568  0.17609036  0.64799747  1
  O  O1422  1  0.92275853  0.08550469  0.54139323  1
  H  H1423  1  0.90012078  0.10090792  0.64099213  1
  C  C1424  1  0.88072347  0.02079670  0.63831355  1
  C  C1425  1  0.93091558  0.21860247  0.56244142  1
  O  O1426  1  0.78285163  0.20088088  0.51437549  1
  C  C1427  1  0.81552204  0.17853287  0.50571419  1
  O  O1428  1  0.84564911  0.20046496  0.50384319  1
  Cu  Cu1429  1  0.95637774  0.04256540  0.51605909  1
  C  C1430  1  0.89021062  0.24199977  0.61605766  1
  H  H1431  1  0.95187034  0.22568521  0.53851618  1
  O  O1432  1  0.95173557  0.14669510  0.50637340  1
  N  N1433  1  0.81635771  0.00450413  0.60631966  1
  O  O1434  1  0.76751236  0.24885185  0.58631085  1
  C  C1435  1  0.84884457  0.05196854  0.74748820  1
  C  C1436  1  0.88675214  0.03205859  0.74504454  1
  C  C1437  1  0.72784512  0.25053032  0.64030245  1
  O  O1438  1  0.50538393  0.40685774  0.56695139  1
  H  H1439  1  0.64082999  0.49133670  0.52398838  1
  C  C1440  1  0.69328017  0.49451799  0.56022384  1
  O  O1441  1  0.52186226  0.38249284  0.62449760  1
  C  C1442  1  0.69399465  0.29881026  0.70317384  1
  H  H1443  1  0.67876496  0.31910510  0.72633597  1
  C  C1444  1  0.71892327  0.32522135  0.67657862  1
  C  C1445  1  0.61425806  0.42336550  0.70414682  1
  N  N1446  1  0.62058698  0.45258010  0.68020826  1
  C  C1447  1  0.70777238  0.44562011  0.54638262  1
  O  O1448  1  0.73933648  0.42674623  0.55678088  1
  C  C1449  1  0.72697813  0.37955740  0.68288754  1
  C  C1450  1  0.73874159  0.30062428  0.64675031  1
  O  O1451  1  0.71226453  0.40360004  0.70842648  1
  H  H1452  1  0.54852033  0.36375858  0.72068031  1
  O  O1453  1  0.68504000  0.42278474  0.52323490  1
  N  N1454  1  0.72357427  0.32291221  0.54293973  1
  H  H1455  1  0.71297075  0.46045717  0.72366136  1
  N  N1456  1  0.70058193  0.31475066  0.56786251  1
  C  C1457  1  0.60783701  0.38702493  0.73431653  1
  Cu  Cu1458  1  0.51556990  0.31384602  0.62551581  1
  H  H1459  1  0.50442377  0.44178261  0.67622945  1
  C  C1460  1  0.51042436  0.41604402  0.60026573  1
  Cu  Cu1461  1  0.74786419  0.41171192  0.60597562  1
  C  C1462  1  0.57309275  0.35801608  0.74076562  1
  H  H1463  1  0.56830959  0.49529675  0.66157732  1
  H  H1464  1  0.67001338  0.39328465  0.74481979  1
  Cu  Cu1465  1  0.94898589  0.38994133  0.64361651  1
  N  N1466  1  0.88970258  0.33667152  0.70669490  1
  C  C1467  1  0.81851987  0.45424232  0.68220097  1
  N  N1468  1  0.88837627  0.30082743  0.72934889  1
  H  H1469  1  0.87803522  0.26950587  0.63547969  1
  C  C1470  1  0.91789123  0.25532500  0.58845660  1
  O  O1471  1  0.75213748  0.39830942  0.65882154  1
  C  C1472  1  0.99897616  0.28819795  0.69840747  1
  C  C1473  1  0.99785784  0.43091500  0.69793359  1
  C  C1474  1  0.80854461  0.47778543  0.61078298  1
  N  N1475  1  0.93036490  0.27184825  0.72651960  1
  O  O1476  1  0.92562283  0.34033800  0.60901060  1
  C  C1477  1  0.93464521  0.30622070  0.58503008  1
  Cu  Cu1478  1  0.76526270  0.26500932  0.53401634  1
  C  C1479  1  0.95469537  0.29975679  0.70448184  1
  O  O1480  1  0.79622788  0.43366384  0.60519960  1
  O  O1481  1  0.96290038  0.30846609  0.56214284  1
  C  C1482  1  0.82144540  0.48971509  0.65073527  1
  O  O1483  1  0.96571530  0.43257020  0.68087485  1
  O  O1484  1  0.99322409  0.26405944  0.62848837  1
  H  H1485  1  0.94285992  0.38200057  0.73389394  1
  H  H1486  1  0.90637493  0.48592096  0.54922021  1
  C  C1487  1  0.82175480  0.47194745  0.72072239  1
  O  O1488  1  0.82613074  0.47668562  0.51352280  1
  H  H1489  1  0.75828050  0.32122993  0.62703617  1
  H  H1490  1  0.81105840  0.41253186  0.67802564  1
  N  N1491  1  0.93547352  0.33595617  0.68542610  1
  N  N1492  1  0.90433413  0.40049578  0.50371272  1
  C  C1493  1  0.56568077  0.13732886  0.88234028  1
  C  C1494  1  0.60002918  0.11529494  0.86315456  1
  C  C1495  1  0.62924375  0.14770610  0.84476446  1
  C  C1496  1  0.65971325  0.11824123  0.82783477  1
  O  O1497  1  0.62578330  0.19529973  0.84348137  1
  C  C1498  1  0.69436948  0.14748921  0.80968316  1
  C  C1499  1  0.66417246  0.06662260  0.83135477  1
  C  C1500  1  0.71143913  0.03417289  0.90729072  1
  C  C1501  1  0.60106172  0.06334136  0.86254581  1
  C  C1502  1  0.63379986  0.03929280  0.84740481  1
  H  H1503  1  0.69245257  0.05142712  0.81973585  1
  O  O1504  1  0.56283848  0.19316519  0.88550485  1
  N  N1505  1  0.73074811  0.13543513  0.81392435  1
  N  N1506  1  0.70474369  0.15903394  0.90090087  1
  N  N1507  1  0.70691183  0.20128155  0.91641211  1
  C  C1508  1  0.68354675  0.06620590  0.92998350  1
  N  N1509  1  0.68408010  0.11744079  0.93373979  1
  O  O1510  1  0.54090351  0.11164186  0.89384228  1
  H  H1511  1  0.54532151  0.19619590  0.90627144  1
  N  N1512  1  0.65283408  0.05111260  0.95238048  1
  N  N1513  1  0.64252750  0.13899365  0.95765940  1
  N  N1514  1  0.69182637  0.18359580  0.78202976  1
  H  H1515  1  0.57755814  0.03928154  0.87587731  1
  H  H1516  1  0.55246479  0.09682211  0.95702447  1
  N  N1517  1  0.54125383  0.23239018  0.96474745  1
  Cu  Cu1518  1  0.58080128  0.23137303  0.82615476  1
  C  C1519  1  0.51789912  0.19146873  0.96578604  1
  N  N1520  1  0.62483079  0.10223781  0.96892558  1
  Cu  Cu1521  1  0.74146853  0.22336113  0.83818120  1
  N  N1522  1  0.60922127  0.17197495  0.76309982  1
  N  N1523  1  0.73738889  0.20214112  0.76870946  1
  O  O1524  1  0.57323129  0.00862740  0.97214705  1
  C  C1525  1  0.74396731  0.05416282  0.88811763  1
  H  H1526  1  0.74632688  0.09477917  0.88713891  1
  C  C1527  1  0.53955837  0.10148781  0.98693302  1
  N  N1528  1  0.71375089  0.24570115  0.88310249  1
  C  C1529  1  0.52277382  0.14710309  0.99736687  1
  C  C1530  1  0.99942595  0.02126777  0.90891650  1
  N  N1531  1  0.75988712  0.17303230  0.78468805  1
  C  C1532  1  0.95783356  0.03475535  0.90155648  1
  C  C1533  1  0.77203467  0.01922785  0.87775750  1
  Cu  Cu1534  1  0.78634280  0.19206231  0.96908449  1
  O  O1535  1  0.80724275  0.09604777  0.86126701  1
  N  N1536  1  0.85317686  0.20601725  0.82105216  1
  C  C1537  1  0.85946264  0.16845868  0.80576884  1
  C  C1538  1  0.80821333  0.05171100  0.86838360  1
  H  H1539  1  0.93175581  0.12084422  0.80112870  1
  C  C1540  1  0.90964960  0.10451988  0.78309868  1
  C  C1541  1  0.86983582  0.12088457  0.78636070  1
  O  O1542  1  0.95337777  0.07062957  0.88105807  1
  Cu  Cu1543  1  0.82455566  0.21586107  0.87561870  1
  N  N1544  1  0.86105766  0.13792727  0.91231392  1
  N  N1545  1  0.85619432  0.17294616  0.93531097  1
  O  O1546  1  0.98596922  0.08106950  0.76793509  1
  O  O1547  1  0.79583213  0.23277618  0.93017582  1
  C  C1548  1  0.91548846  0.05953503  0.76350957  1
  C  C1549  1  0.99251212  0.21787247  0.86262716  1
  C  C1550  1  0.83922685  0.09521323  0.76761795  1
  H  H1551  1  0.98834938  0.20748978  0.80036105  1
  N  N1552  1  0.87087169  0.08643592  0.94061847  1
  H  H1553  1  0.80870010  0.06191158  0.97937600  1
  C  C1554  1  0.78219606  0.03812370  0.98589715  1
  Cu  Cu1555  1  0.87378790  0.01407772  0.91184874  1
  O  O1556  1  0.93194491  0.24029668  0.83513816  1
  O  O1557  1  0.84134019  0.02944403  0.86751329  1
  O  O1558  1  0.92997824  0.00580471  0.91460794  1
  C  C1559  1  0.95813471  0.04638796  0.76037814  1
  H  H1560  1  0.80904169  0.11044618  0.76558610  1
  C  C1561  1  0.95263375  0.24162272  0.86693700  1
  C  C1562  1  0.87072962  0.10028236  0.97822085  1
  N  N1563  1  0.85993787  0.14789933  0.98203101  1
  H  H1564  1  0.99945206  0.21957503  0.92528876  1
  Cu  Cu1565  1  0.80632842  0.24515459  0.79840896  1
  O  O1566  1  0.96636847  0.00551338  0.75058029  1
  Cu  Cu1567  1  0.50287030  0.40401039  0.92841177  1
  H  H1568  1  0.62297594  0.48298619  0.98493305  1
  O  O1569  1  0.53975694  0.26256287  0.80531784  1
  Cu  Cu1570  1  0.66374251  0.26868162  0.86348828  1
  O  O1571  1  0.51446786  0.29759177  0.75422217  1
  N  N1572  1  0.52072398  0.27673593  0.93306604  1
  C  C1573  1  0.61769086  0.48552288  0.79727432  1
  H  H1574  1  0.69037931  0.46743462  0.82894445  1
  O  O1575  1  0.58221375  0.47942297  0.78402384  1
  O  O1576  1  0.60688830  0.29125412  0.82576435  1
  O  O1577  1  0.54391407  0.37851065  0.89565347  1
  O  O1578  1  0.68992414  0.28920698  0.82054437  1
  H  H1579  1  0.57172430  0.42945471  0.84282732  1
  C  C1580  1  0.60938771  0.31993516  0.79790120  1
  C  C1581  1  0.57985361  0.36335679  0.90017195  1
  C  C1582  1  0.63009142  0.45317276  0.83165528  1
  C  C1583  1  0.61088258  0.39537144  0.88285914  1
  C  C1584  1  0.64820245  0.38532257  0.89643601  1
  C  C1585  1  0.71694990  0.40017165  0.89093533  1
  C  C1586  1  0.67606257  0.41229131  0.87483953  1
  C  C1587  1  0.66815499  0.44739190  0.84531505  1
  C  C1588  1  0.60113758  0.42605319  0.85042384  1
  H  H1589  1  0.65266785  0.36130397  0.92196770  1
  C  C1590  1  0.68542002  0.32957064  0.79861424  1
  C  C1591  1  0.64583552  0.34247608  0.78490977  1
  O  O1592  1  0.58860550  0.33054841  0.92220272  1
  O  O1593  1  0.71271265  0.35280443  0.78659526  1
  C  C1594  1  0.54260954  0.29494677  0.77961755  1
  C  C1595  1  0.57527684  0.32856591  0.77304781  1
  O  O1596  1  0.53550487  0.40036197  0.97370167  1
  O  O1597  1  0.56778386  0.46661470  0.95465687  1
  C  C1598  1  0.56269535  0.43329525  0.97688515  1
  N  N1599  1  0.72103692  0.38210763  0.92699216  1
  C  C1600  1  0.64325624  0.37603865  0.75447340  1
  N  N1601  1  0.78960864  0.40396868  0.82229840  1
  Cu  Cu1602  1  0.83452165  0.25890165  0.96120951  1
  O  O1603  1  0.94363965  0.26195106  0.89574287  1
  C  C1604  1  0.97004478  0.36954615  0.79123910  1
  Cu  Cu1605  1  0.83914166  0.36877900  0.95127935  1
  N  N1606  1  0.77278458  0.46513066  0.77353546  1
  C  C1607  1  0.82317997  0.49624489  0.88003869  1
  N  N1608  1  0.89164395  0.38068189  0.94325017  1
  N  N1609  1  0.85113430  0.32291250  0.99108043  1
  Cu  Cu1610  1  0.90124371  0.34215450  0.98581269  1
  Cu  Cu1611  1  0.87007926  0.36672346  0.79214028  1
  Cu  Cu1612  1  0.90066000  0.35952288  0.88948469  1
  N  N1613  1  0.85235876  0.31338870  0.88733477  1
  C  C1614  1  0.93769451  0.35345477  0.81440845  1
  N  N1615  1  0.78634217  0.38089987  0.90897343  1
  N  N1616  1  0.81869794  0.40704380  0.78013888  1
  N  N1617  1  0.86907392  0.46366119  0.96135925  1
  N  N1618  1  0.91093735  0.34097062  0.83264248  1
  N  N1619  1  0.99636927  0.31356731  0.97514756  1
  O  O1620  1  0.88543664  0.42896142  0.81470111  1
  C  C1621  1  0.86991628  0.43915592  0.84687564  1
  N  N1622  1  0.76355615  0.43605002  0.81907785  1
  N  N1623  1  0.78547934  0.26350884  0.85144787  1
  Cu  Cu1624  1  0.75687983  0.28794791  0.89755770  1
  N  N1625  1  0.75324323  0.40644802  0.87630433  1
  O  O1626  1  0.84204149  0.30614341  0.80637148  1
  N  N1627  1  0.85922245  0.26918785  0.89295592  1
  C  C1628  1  0.80475536  0.44480109  0.75798107  1
  O  O1629  1  0.86568438  0.40832017  0.87459110  1
  N  N1630  1  0.89811459  0.44354824  0.94905710  1
  C  C1631  1  0.96785885  0.38745797  0.75332452  1
  N  N1632  1  0.76787677  0.36708041  0.93745281  1
  H  H1633  1  0.81690454  0.46891856  0.90315658  1
  Cu  Cu1634  1  0.80551477  0.33234361  0.85420687  1
  Cu  Cu1635  1  0.88800886  0.27117604  0.81965337  1
  C  C1636  1  0.84989878  0.48794166  0.84918968  1
  O  O1637  1  0.71370093  0.61243378  0.11985478  1
  O  O1638  1  0.58357134  0.59185256  0.14547507  1
  N  N1639  1  0.69239789  0.56103233  0.14854884  1
  N  N1640  1  0.66274875  0.56834498  0.16620293  1
  C  C1641  1  0.70216958  0.65599774  0.12225500  1
  O  O1642  1  0.67399641  0.66744822  0.14686711  1
  H  H1643  1  0.54024339  0.65931250  0.20571673  1
  Cu  Cu1644  1  0.62847978  0.63248958  0.15110023  1
  O  O1645  1  0.60198145  0.67131461  0.18956915  1
  C  C1646  1  0.72093645  0.69740235  0.10190425  1
  C  C1647  1  0.57367455  0.55660251  0.16738830  1
  Cu  Cu1648  1  0.69377377  0.64406950  0.21343244  1
  Cu  Cu1649  1  0.70320890  0.54263647  0.22492554  1
  C  C1650  1  0.54404038  0.66455657  0.23697572  1
  C  C1651  1  0.61076481  0.67258419  0.22573847  1
  O  O1652  1  0.64754087  0.67259760  0.23314572  1
  H  H1653  1  0.54327844  0.56988977  0.10056548  1
  C  C1654  1  0.54563007  0.52046016  0.15039031  1
  C  C1655  1  0.53219154  0.53426819  0.11381083  1
  O  O1656  1  0.59480114  0.54742112  0.19606418  1
  O  O1657  1  0.74475150  0.66586694  0.22143373  1
  N  N1658  1  0.52586087  0.72703303  0.14018484  1
  N  N1659  1  0.51575792  0.67667807  0.11199732  1
  O  O1660  1  0.59656012  0.71022852  0.00446347  1
  O  O1661  1  0.68002731  0.51762679  0.00632307  1
  Cu  Cu1662  1  0.64195445  0.50613517  0.18984284  1
  C  C1663  1  0.50549744  0.72306084  0.17338688  1
  C  C1664  1  0.50223239  0.50469825  0.09804337  1
  C  C1665  1  0.52809106  0.74426385  0.03929092  1
  C  C1666  1  0.59914453  0.74417034  0.02974099  1
  O  O1667  1  0.73864972  0.74480380  0.23302491  1
  C  C1668  1  0.70745107  0.74671091  0.10979335  1
  H  H1669  1  0.68307060  0.74995641  0.13036176  1
  C  C1670  1  0.75105391  0.68974654  0.07694648  1
  C  C1671  1  0.75464032  0.71236644  0.21494102  1
  H  H1672  1  0.76302804  0.65406532  0.06962190  1
  H  H1673  1  0.97410834  0.50536920  0.09412890  1
  C  C1674  1  0.76604299  0.73074015  0.05537178  1
  C  C1675  1  0.78277208  0.71957784  0.18235094  1
  N  N1676  1  0.84280016  0.61507906  0.08393039  1
  Cu  Cu1677  1  0.84145477  0.60083352  0.02643967  1
  H  H1678  1  0.79128671  0.64039431  0.17335171  1
  C  C1679  1  0.79638167  0.71690890  0.02820013  1
  C  C1680  1  0.81916689  0.68891191  0.12852401  1
  C  C1681  1  0.83168427  0.64687936  0.10326898  1
  C  C1682  1  0.79850529  0.67894512  0.16314788  1
  O  O1683  1  0.91855789  0.52978444  0.11756502  1
  Cu  Cu1684  1  0.90138889  0.59102072  0.09447805  1
  O  O1685  1  0.90830669  0.60544923  0.04307142  1
  O  O1686  1  0.80042040  0.53866012  0.03248171  1
  O  O1687  1  0.91037140  0.63845126  0.13443544  1
  C  C1688  1  0.92543220  0.67867963  0.12290845  1
  O  O1689  1  0.91149637  0.70767791  0.09914706  1
  C  C1690  1  0.96480872  0.69510414  0.13730714  1
  O  O1691  1  0.94532632  0.54246916  0.02526799  1
  C  C1692  1  0.93571817  0.58513420  0.02090608  1
  N  N1693  1  0.81870245  0.70194938  0.00584539  1
  C  C1694  1  0.82734681  0.73942682  0.11701255  1
  H  H1695  1  0.96773547  0.63708522  0.17985409  1
  C  C1696  1  0.98243646  0.67113526  0.16815973  1
  H  H1697  1  0.84587086  0.74435933  0.09094342  1
  Cu  Cu1698  1  0.75609941  0.51129471  0.05064354  1
  C  C1699  1  0.98186248  0.73848335  0.12074522  1
  N  N1700  1  0.69890565  0.99029637  0.14105533  1
  C  C1701  1  0.51186911  0.75515713  0.21068866  1
  N  N1702  1  0.50333796  0.91420721  0.06987043  1
  C  C1703  1  0.56514504  0.75976767  0.05299182  1
  H  H1704  1  0.57361216  0.77608071  0.19372263  1
  C  C1705  1  0.56507318  0.79870805  0.08041604  1
  C  C1706  1  0.63316299  0.77575502  0.03339294  1
  H  H1707  1  0.53943769  0.81018310  0.09930371  1
  O  O1708  1  0.57866248  0.86765010  0.13659458  1
  C  C1709  1  0.60416543  0.86431336  0.11392591  1
  C  C1710  1  0.60029612  0.82074682  0.08544451  1
  O  O1711  1  0.63502102  0.89394223  0.11495318  1
  C  C1712  1  0.63358801  0.81056068  0.06400133  1
  H  H1713  1  0.66064110  0.83442250  0.06622884  1
  Cu  Cu1714  1  0.66612777  0.89408376  0.15859597  1
  O  O1715  1  0.69312775  0.83882011  0.13778776  1
  O  O1716  1  0.64270870  0.95030220  0.18102941  1
  C  C1717  1  0.72689526  0.78737207  0.09308700  1
  C  C1718  1  0.71518452  0.83621663  0.10682669  1
  C  C1719  1  0.61424330  0.95691124  0.20417721  1
  O  O1720  1  0.55704979  0.97817347  0.02926327  1
  Cu  Cu1721  1  0.53868594  0.91730309  0.02103624  1
  C  C1722  1  0.54889034  0.77563086  0.21499758  1
  O  O1723  1  0.60390321  0.92531641  0.22832761  1
  C  C1724  1  0.66509042  0.77434710  0.00646807  1
  O  O1725  1  0.69117369  0.80923027  0.00573176  1
  O  O1726  1  0.61812006  0.81459169  0.23652790  1
  N  N1727  1  0.71848847  0.93917639  0.16592005  1
  O  O1728  1  0.52388342  0.85334906  0.01159206  1
  H  H1729  1  0.71945925  0.89738606  0.23741917  1
  O  O1730  1  0.72905308  0.87378697  0.09067728  1
  C  C1731  1  0.74952866  0.88463213  0.23345877  1
  N  N1732  1  0.61838941  0.89200846  0.00856782  1
  O  O1733  1  0.80807997  0.95876501  0.10446897  1
  H  H1734  1  0.96382984  0.75828534  0.09796608  1
  N  N1735  1  0.76548814  0.99504430  0.16570965  1
  C  C1736  1  0.75465698  0.95005751  0.17914660  1
  C  C1737  1  0.90867732  0.99520514  0.04859881  1
  O  O1738  1  0.94511787  0.93156051  0.08047493  1
  N  N1739  1  0.97797789  0.80322900  0.05249748  1
  N  N1740  1  0.91193596  0.81974168  0.02976875  1
  C  C1741  1  0.94061449  0.95793376  0.05240599  1
  C  C1742  1  0.75492423  0.78063267  0.06605228  1
  O  O1743  1  0.95085720  0.98499461  0.22786555  1
  C  C1744  1  0.87868295  0.98529845  0.07462391  1
  Cu  Cu1745  1  0.76976270  0.91182464  0.10223976  1
  H  H1746  1  0.77141229  0.79817550  0.18618724  1
  C  C1747  1  0.78745391  0.76925292  0.16916429  1
  C  C1748  1  0.77332413  0.91175858  0.20798367  1
  O  O1749  1  0.79888712  0.87079926  0.13292846  1
  C  C1750  1  0.81879229  0.83140825  0.12058754  1
  H  H1751  1  0.83273315  0.93275692  0.18837686  1
  H  H1752  1  0.87790332  0.95526301  0.09650893  1
  N  N1753  1  0.93129940  0.82977643  0.05813266  1
  O  O1754  1  0.84027514  0.83406514  0.09340560  1
  C  C1755  1  0.80984957  0.77863466  0.13674752  1
  C  C1756  1  0.97884635  0.78147256  0.01764421  1
  C  C1757  1  0.83118510  0.87128874  0.22957526  1
  O  O1758  1  0.96501108  0.95450111  0.02288682  1
  O  O1759  1  0.89899798  0.89629048  0.21559040  1
  C  C1760  1  0.81469150  0.90779197  0.20586364  1
  H  H1761  1  0.76854320  0.81420494  0.05047236  1
  C  C1762  1  0.87416312  0.86307774  0.22982930  1
  O  O1763  1  0.88524934  0.82837546  0.24792843  1
  N  N1764  1  0.94396585  0.78478496  0.00026999  1
  N  N1765  1  0.60680005  0.59901719  0.39559811  1
  Cu  Cu1766  1  0.69422022  0.61128844  0.36772640  1
  N  N1767  1  0.64430209  0.62543123  0.42092879  1
  N  N1768  1  0.66120881  0.66272517  0.41011731  1
  N  N1769  1  0.65151147  0.63672456  0.33221071  1
  Cu  Cu1770  1  0.61525626  0.52334519  0.39849495  1
  Cu  Cu1771  1  0.56551004  0.58816709  0.43083453  1
  Cu  Cu1772  1  0.59818747  0.62969333  0.34476395  1
  O  O1773  1  0.72100124  0.62925625  0.46162741  1
  N  N1774  1  0.58947785  0.57529348  0.30068368  1
  Cu  Cu1775  1  0.64523324  0.59375042  0.28434474  1
  N  N1776  1  0.65012324  0.52969680  0.45982287  1
  N  N1777  1  0.67555951  0.53332242  0.33726214  1
  Cu  Cu1778  1  0.69464963  0.68983529  0.45639175  1
  C  C1779  1  0.54625711  0.68779913  0.32019618  1
  C  C1780  1  0.58242594  0.69022057  0.29457123  1
  C  C1781  1  0.58733764  0.53426932  0.29184551  1
  O  O1782  1  0.72953029  0.63444270  0.32839124  1
  C  C1783  1  0.54385190  0.70291616  0.36102792  1
  O  O1784  1  0.56595644  0.52407367  0.40756180  1
  Cu  Cu1785  1  0.64139897  0.69593227  0.36314148  1
  Cu  Cu1786  1  0.69074762  0.66431492  0.29122353  1
  Cu  Cu1787  1  0.73217198  0.56933043  0.30305337  1
  O  O1788  1  0.61114749  0.71021597  0.30447857  1
  O  O1789  1  0.56979727  0.71041840  0.38260097  1
  N  N1790  1  0.71534474  0.51846450  0.37084684  1
  N  N1791  1  0.61810728  0.51970010  0.47254926  1
  Cu  Cu1792  1  0.67172327  0.60174534  0.47723390  1
  C  C1793  1  0.51318715  0.67259187  0.30330530  1
  N  N1794  1  0.74308314  0.60024264  0.39894307  1
  O  O1795  1  0.61355071  0.72425680  0.47961904  1
  N  N1796  1  0.69624250  0.59921363  0.26249188  1
  N  N1797  1  0.50874218  0.59220071  0.40473089  1
  Cu  Cu1798  1  0.74384153  0.57082446  0.48213052  1
  Cu  Cu1799  1  0.51209597  0.51959978  0.38675219  1
  N  N1800  1  0.74826397  0.71567573  0.43684729  1
  O  O1801  1  0.72763329  0.50488487  0.27472011  1
  H  H1802  1  0.50311511  0.67800692  0.39180035  1
  O  O1803  1  0.50040556  0.70824710  0.37853486  1
  C  C1804  1  0.51185594  0.66209209  0.26225665  1
  C  C1805  1  0.57962736  0.67516133  0.25302832  1
  N  N1806  1  0.75137687  0.55599390  0.39880255  1
  C  C1807  1  0.99954244  0.53925960  0.29352994  1
  C  C1808  1  0.75312600  0.73963745  0.46411258  1
  O  O1809  1  0.79866679  0.51687415  0.30709750  1
  C  C1810  1  0.95555519  0.50869222  0.46367367  1
  Cu  Cu1811  1  0.76872065  0.64452784  0.43916051  1
  H  H1812  1  0.81042816  0.55659047  0.38417050  1
  C  C1813  1  0.85074859  0.57235588  0.33408948  1
  C  C1814  1  0.83845230  0.62556998  0.44102605  1
  C  C1815  1  0.95202995  0.56228650  0.46193690  1
  C  C1816  1  0.90277732  0.63060585  0.34916095  1
  C  C1817  1  0.83247716  0.53752190  0.30149531  1
  N  N1818  1  0.82540663  0.58853605  0.46237776  1
  H  H1819  1  0.89343572  0.67298209  0.40553107  1
  O  O1820  1  0.95268121  0.64179876  0.30390315  1
  C  C1821  1  0.85185085  0.61394874  0.39668306  1
  C  C1822  1  0.83527156  0.57779604  0.37215606  1
  C  C1823  1  0.93805286  0.65603759  0.33575303  1
  C  C1824  1  0.88438383  0.64196097  0.38509343  1
  N  N1825  1  0.83764843  0.66875717  0.46197583  1
  C  C1826  1  0.88360394  0.59778293  0.32326261  1
  O  O1827  1  0.95306587  0.68811903  0.35832783  1
  H  H1828  1  0.89673051  0.59148841  0.29507540  1
  O  O1829  1  0.96150323  0.63676219  0.42639595  1
  O  O1830  1  0.96654919  0.53375961  0.30893472  1
  C  C1831  1  0.96726007  0.58917565  0.42822250  1
  Cu  Cu1832  1  0.95973771  0.53611625  0.36137694  1
  Cu  Cu1833  1  0.98936630  0.68182224  0.39753628  1
  O  O1834  1  0.85035889  0.52992819  0.27323504  1
  C  C1835  1  0.93210708  0.58537492  0.49188602  1
  H  H1836  1  0.92954342  0.62487772  0.48751143  1
  O  O1837  1  0.98396549  0.56483350  0.40158328  1
  O  O1838  1  0.77121520  0.51313738  0.49793680  1
  O  O1839  1  0.66633420  0.75112578  0.45089272  1
  C  C1840  1  0.62986193  0.75482685  0.45684669  1
  O  O1841  1  0.72290173  0.99064302  0.47458540  1
  C  C1842  1  0.50645017  0.85197801  0.42705533  1
  H  H1843  1  0.53458242  0.82137844  0.31128693  1
  H  H1844  1  0.55127753  0.77463586  0.46128437  1
  C  C1845  1  0.60717073  0.79318588  0.43616258  1
  O  O1846  1  0.66866689  0.88481400  0.36119338  1
  C  C1847  1  0.63309050  0.89346022  0.36471275  1
  H  H1848  1  0.65971252  0.81526835  0.40530322  1
  C  C1849  1  0.62901823  0.82450291  0.41129848  1
  C  C1850  1  0.55076456  0.84266335  0.42144397  1
  H  H1851  1  0.55522428  0.90189325  0.37692931  1
  C  C1852  1  0.57037706  0.87259827  0.39465127  1
  C  C1853  1  0.60985719  0.86301566  0.39282901  1
  C  C1854  1  0.56741732  0.80002008  0.44115886  1
  O  O1855  1  0.69758105  0.95141198  0.28128697  1
  Cu  Cu1856  1  0.69286131  0.89380427  0.31294361  1
  O  O1857  1  0.59364407  0.85508429  0.28786256  1
  O  O1858  1  0.71363483  0.83536278  0.29091009  1
  O  O1859  1  0.61385974  0.92217626  0.34297180  1
  Cu  Cu1860  1  0.61201803  0.92123515  0.28717166  1
  O  O1861  1  0.63880747  0.98584543  0.28952339  1
  C  C1862  1  0.52726368  0.80640111  0.28182656  1
  H  H1863  1  0.56181056  0.99441799  0.25195070  1
  C  C1864  1  0.67365394  0.98837746  0.27892855  1
  C  C1865  1  0.59218846  0.82369680  0.25918869  1
  C  C1866  1  0.55379003  0.79923562  0.25126606  1
  N  N1867  1  0.92681786  0.93834032  0.49858963  1
  N  N1868  1  0.90102975  0.90930503  0.49026509  1
  N  N1869  1  0.86006424  0.94686227  0.48331969  1
  C  C1870  1  0.99342486  0.83668887  0.40095935  1
  C  C1871  1  0.75106108  0.82870497  0.29247767  1
  C  C1872  1  0.75893060  0.77009801  0.49958838  1
  H  H1873  1  0.95385445  0.99310234  0.40299983  1
  C  C1874  1  0.81003327  0.84155292  0.25420597  1
  H  H1875  1  0.79179986  0.98169520  0.48465295  1
  O  O1876  1  0.93690057  0.93920673  0.35181910  1
  N  N1877  1  0.97522004  0.79968005  0.33479270  1
  O  O1878  1  0.96735748  0.93831457  0.29682641  1
  O  O1879  1  0.76773675  0.80654101  0.31752259  1
  Cu  Cu1880  1  0.93201997  0.92725734  0.25236518  1
  H  H1881  1  0.82509686  0.81471140  0.27346838  1
  C  C1882  1  0.77070969  0.85283681  0.25814087  1
  H  H1883  1  0.97584291  0.83098124  0.48179276  1
  C  C1884  1  0.96124305  0.95777444  0.33175235  1
  N  N1885  1  0.95756264  0.81309880  0.40114223  1
  N  N1886  1  0.94792085  0.78858026  0.35522560  1
  C  C1887  1  0.87004913  0.99696189  0.49011568  1
  N  N1888  1  0.90794585  0.99947628  0.49994316  1
  N  N1889  1  0.63289740  0.59415845  0.68147982  1
  O  O1890  1  0.69643478  0.63328550  0.64891777  1
  C  C1891  1  0.67900349  0.71573614  0.59337006  1
  C  C1892  1  0.70787436  0.69273771  0.56681604  1
  H  H1893  1  0.65588284  0.62683879  0.59846279  1
  C  C1894  1  0.66506792  0.58884741  0.58869771  1
  C  C1895  1  0.69732888  0.56370057  0.60432847  1
  C  C1896  1  0.64759569  0.55975017  0.55903895  1
  C  C1897  1  0.68770287  0.67513848  0.53332424  1
  C  C1898  1  0.71299515  0.59197644  0.63989633  1
  N  N1899  1  0.58105443  0.59780806  0.55986756  1
  N  N1900  1  0.59800503  0.58596969  0.71485314  1
  C  C1901  1  0.60888677  0.57640754  0.54029280  1
  Cu  Cu1902  1  0.66213444  0.65390720  0.69706544  1
  N  N1903  1  0.58116034  0.54539047  0.71317452  1
  Cu  Cu1904  1  0.67440467  0.55166759  0.69797393  1
  N  N1905  1  0.69376309  0.60780074  0.72467718  1
  Cu  Cu1906  1  0.62373366  0.54930068  0.64097428  1
  O  O1907  1  0.64302089  0.71857859  0.58556925  1
  C  C1908  1  0.69739648  0.73119830  0.62872331  1
  N  N1909  1  0.66707928  0.66630575  0.50836299  1
  Cu  Cu1910  1  0.62453626  0.71750931  0.53013298  1
  N  N1911  1  0.53979387  0.59303265  0.53371937  1
  C  C1912  1  0.73652797  0.72607560  0.63637195  1
  C  C1913  1  0.71374548  0.52037529  0.58939763  1
  O  O1914  1  0.74091527  0.57712498  0.65750873  1
  O  O1915  1  0.52887127  0.70467256  0.52382817  1
  C  C1916  1  0.54273520  0.74148254  0.53676847  1
  O  O1917  1  0.57817602  0.74419386  0.54983997  1
  N  N1918  1  0.71355569  0.50102648  0.72567132  1
  N  N1919  1  0.59455800  0.50835843  0.67235489  1
  C  C1920  1  0.74919809  0.69055768  0.57156065  1
  C  C1921  1  0.72508292  0.61801208  0.74370633  1
  H  H1922  1  0.63278467  0.74031867  0.62763110  1
  O  O1923  1  0.63210522  0.74968429  0.65726284  1
  H  H1924  1  0.74020952  0.50380076  0.60141915  1
  O  O1925  1  0.50723046  0.50234104  0.73711853  1
  C  C1926  1  0.65848048  0.51325759  0.54498782  1
  N  N1927  1  0.73943842  0.51566416  0.74911861  1
  H  H1928  1  0.74928508  0.74143036  0.66464442  1
  N  N1929  1  0.54939338  0.57765688  0.50115700  1
  N  N1930  1  0.59718051  0.57059332  0.50231857  1
  H  H1931  1  0.76895681  0.67674800  0.54829839  1
  Cu  Cu1932  1  0.84898545  0.52167784  0.54798215  1
  C  C1933  1  0.76162925  0.70711047  0.60684451  1
  C  C1934  1  0.84246722  0.51731005  0.72686505  1
  O  O1935  1  0.90457131  0.64016610  0.55233001  1
  C  C1936  1  0.96611840  0.69799877  0.61454706  1
  H  H1937  1  0.84090850  0.56174662  0.62974671  1
  O  O1938  1  0.82731711  0.68685053  0.59384951  1
  C  C1939  1  0.80234352  0.70478392  0.61808683  1
  C  C1940  1  0.83773275  0.53743701  0.65451633  1
  C  C1941  1  0.86909022  0.59445695  0.69926395  1
  O  O1942  1  0.88256618  0.60381170  0.73153650  1
  O  O1943  1  0.86764101  0.62936587  0.67316149  1
  Cu  Cu1944  1  0.87837970  0.69622583  0.57570991  1
  O  O1945  1  0.81338810  0.71837087  0.65158249  1
  C  C1946  1  0.90147255  0.59214020  0.55568864  1
  C  C1947  1  0.85012299  0.54519217  0.69274688  1
  O  O1948  1  0.87476266  0.57171456  0.57479867  1
  N  N1949  1  0.92853487  0.70670558  0.61327586  1
  Cu  Cu1950  1  0.85300741  0.69303399  0.68940870  1
  N  N1951  1  0.98079206  0.71076958  0.65077405  1
  C  C1952  1  0.91952293  0.56161051  0.52640685  1
  H  H1953  1  0.98581159  0.60801720  0.62566105  1
  H  H1954  1  0.79019092  0.67232905  0.72043649  1
  C  C1955  1  0.99643205  0.67132335  0.58695844  1
  O  O1956  1  0.80885939  0.51092118  0.58404103  1
  O  O1957  1  0.84333388  0.74150359  0.72517782  1
  C  C1958  1  0.77033444  0.69537518  0.73902464  1
  N  N1959  1  0.91502430  0.73596887  0.65605905  1
  C  C1960  1  0.98677810  0.67741589  0.74798204  1
  C  C1961  1  0.97894649  0.58041353  0.73504587  1
  O  O1962  1  0.96255033  0.54491738  0.74829631  1
  N  N1963  1  0.94508357  0.74487407  0.67321810  1
  C  C1964  1  0.91878492  0.50922261  0.52623925  1
  O  O1965  1  0.99878710  0.58042456  0.70259477  1
  C  C1966  1  0.77921967  0.74370362  0.74984675  1
  N  N1967  1  0.81268764  0.61236963  0.50780365  1
  N  N1968  1  0.81775582  0.65754908  0.50587042  1
  C  C1969  1  0.67297787  0.75308714  0.66042587  1
  O  O1970  1  0.68797121  0.76795386  0.68911699  1
  C  C1971  1  0.51957702  0.78978997  0.53814454  1
  Cu  Cu1972  1  0.64107663  0.97704206  0.63902042  1
  Cu  Cu1973  1  0.71644613  0.97928750  0.62624849  1
  N  N1974  1  0.59960416  0.98438897  0.57943790  1
  H  H1975  1  0.57333962  0.83291276  0.55640023  1
  C  C1976  1  0.52063359  0.87621872  0.55614408  1
  C  C1977  1  0.54073283  0.83199707  0.54999552  1
  N  N1978  1  0.58174966  0.93254027  0.55631405  1
  C  C1979  1  0.54775526  0.92085666  0.56991030  1
  O  O1980  1  0.57051305  0.84268476  0.67057450  1
  C  C1981  1  0.59111631  0.87449851  0.68320584  1
  O  O1982  1  0.62900364  0.86652294  0.68592424  1
  O  O1983  1  0.67077679  0.84459189  0.55344208  1
  Cu  Cu1984  1  0.66549940  0.85812519  0.64676165  1
  N  N1985  1  0.68157222  0.93096629  0.65247075  1
  N  N1986  1  0.54088789  0.94894759  0.60186916  1
  C  C1987  1  0.53498775  0.93861556  0.69319317  1
  Cu  Cu1988  1  0.71309616  0.94358597  0.69609669  1
  C  C1989  1  0.57301413  0.92478820  0.69553837  1
  C  C1990  1  0.60143692  0.95940953  0.70633860  1
  H  H1991  1  0.63227785  0.94493737  0.70955779  1
  C  C1992  1  0.69968445  0.84025774  0.57196748  1
  O  O1993  1  0.70295937  0.85981657  0.60669021  1
  C  C1994  1  0.72979048  0.79623961  0.51921342  1
  H  H1995  1  0.51121343  0.91369057  0.68371997  1
  C  C1996  1  0.73653495  0.81803168  0.55525333  1
  H  H1997  1  0.70059234  0.79940129  0.50710075  1
  C  C1998  1  0.52668636  0.99095613  0.70082465  1
  N  N1999  1  0.57457893  0.99508152  0.60315548  1
  O  O2000  1  0.82523549  0.98609249  0.70722181  1
  C  C2001  1  0.88825586  0.97130373  0.64436346  1
  H  H2002  1  0.98078186  0.98240226  0.67976561  1
  C  C2003  1  0.95321418  0.99296427  0.66859838  1
  C  C2004  1  0.79532453  0.77037713  0.51769254  1
  C  C2005  1  0.93241258  0.90255737  0.66540340  1
  H  H2006  1  0.89113124  0.99526994  0.72992960  1
  O  O2007  1  0.86510102  0.75708738  0.55303470  1
  O  O2008  1  0.96866280  0.89153603  0.67674883  1
  O  O2009  1  0.90740725  0.87194299  0.66597537  1
  O  O2010  1  0.99000757  0.83276875  0.55954599  1
  O  O2011  1  0.81882159  0.81594753  0.73913229  1
  C  C2012  1  0.92539766  0.95726907  0.65819283  1
  C  C2013  1  0.80066515  0.79623264  0.55237133  1
  C  C2014  1  0.77154446  0.81955619  0.57535402  1
  C  C2015  1  0.84079613  0.79025224  0.56888371  1
  Cu  Cu2016  1  0.98745255  0.83582945  0.69967536  1
  H  H2017  1  0.86489233  0.94102121  0.64106925  1
  C  C2018  1  0.81502174  0.77208999  0.73453728  1
  H  H2019  1  0.77537096  0.83696038  0.60394994  1
  O  O2020  1  0.85058501  0.81667895  0.59489279  1
  H  H2021  1  0.81971757  0.75072988  0.50436710  1
  O  O2022  1  0.68634181  0.65237235  0.96358947  1
  H  H2023  1  0.61697311  0.60524575  0.88148258  1
  C  C2024  1  0.60525792  0.59189095  0.96350690  1
  C  C2025  1  0.58760087  0.59219321  0.89103751  1
  C  C2026  1  0.57835573  0.58192214  0.93144572  1
  N  N2027  1  0.62557819  0.59846895  0.98910137  1
  C  C2028  1  0.56161163  0.58631452  0.86276989  1
  C  C2029  1  0.56703596  0.59762546  0.81783634  1
  C  C2030  1  0.54103335  0.56407713  0.93909898  1
  H  H2031  1  0.53272035  0.55424104  0.96936654  1
  Cu  Cu2032  1  0.70528102  0.71706465  0.95476619  1
  H  H2033  1  0.68554252  0.68464360  0.78985349  1
  C  C2034  1  0.71228160  0.70065638  0.77853928  1
  O  O2035  1  0.59481418  0.61939668  0.80758660  1
  O  O2036  1  0.54070343  0.57818565  0.79562589  1
  C  C2037  1  0.52417466  0.57017197  0.87152671  1
  C  C2038  1  0.51379819  0.55683610  0.91006115  1
  Cu  Cu2039  1  0.64116694  0.67854405  0.98313041  1
  H  H2040  1  0.52018296  0.71276977  0.87601041  1
  Cu  Cu2041  1  0.68478214  0.58569876  0.99176659  1
  Cu  Cu2042  1  0.71953434  0.62410068  0.93304725  1
  O  O2043  1  0.59092940  0.71385014  0.88370447  1
  Cu  Cu2044  1  0.54952958  0.52489326  0.76603454  1
  C  C2045  1  0.51466954  0.73939075  0.90025672  1
  O  O2046  1  0.66598256  0.73984966  0.98053355  1
  C  C2047  1  0.73589763  0.67477146  0.75289467  1
  N  N2048  1  0.74491774  0.58708775  0.99302047  1
  O  O2049  1  0.63879317  0.51429806  0.78218926  1
  O  O2050  1  0.74347836  0.68540269  0.92804807  1
  H  H2051  1  0.50200084  0.57289282  0.84893270  1
  O  O2052  1  0.50144186  0.71019846  0.81516539  1
  O  O2053  1  0.75042276  0.58920118  0.90305071  1
  N  N2054  1  0.75057515  0.58268564  0.75399180  1
  C  C2055  1  0.99441047  0.61232288  0.93055207  1
  O  O2056  1  0.76195224  0.51800370  0.93450607  1
  C  C2057  1  0.76815163  0.54843993  0.90657662  1
  C  C2058  1  0.91203857  0.65938837  0.84759834  1
  C  C2059  1  0.83719039  0.60722494  0.79282863  1
  C  C2060  1  0.94120052  0.66407282  0.81295827  1
  C  C2061  1  0.83286377  0.56727621  0.82029520  1
  C  C2062  1  0.79979488  0.53873006  0.87876887  1
  C  C2063  1  0.85527506  0.52213574  0.81936230  1
  H  H2064  1  0.93042239  0.58807184  0.79157818  1
  Cu  Cu2065  1  0.83172178  0.61877591  0.95013407  1
  C  C2066  1  0.80575575  0.57528073  0.85057679  1
  N  N2067  1  0.87089187  0.53015637  0.95896365  1
  N  N2068  1  0.83999742  0.54949945  0.96664828  1
  H  H2069  1  0.79083696  0.61196634  0.84875844  1
  C  C2070  1  0.94714803  0.62424722  0.78815818  1
  C  C2071  1  0.94329970  0.66129835  0.97655944  1
  C  C2072  1  0.95687272  0.68494597  0.94156650  1
  N  N2073  1  0.86694675  0.61935243  0.89397417  1
  N  N2074  1  0.90152947  0.61401811  0.85682459  1
  N  N2075  1  0.86571148  0.66382430  0.90270387  1
  N  N2076  1  0.89711991  0.69396447  0.87344758  1
  C  C2077  1  0.95960160  0.71133029  0.80815523  1
  C  C2078  1  0.97872326  0.71758819  0.77315614  1
  Cu  Cu2079  1  0.78302786  0.52894222  0.98349696  1
  C  C2080  1  0.97981405  0.58759633  0.96281773  1
  N  N2081  1  0.84819104  0.62942939  0.76682827  1
  H  H2082  1  0.87367287  0.51593407  0.79593056  1
  C  C2083  1  0.95367669  0.61299882  0.98852151  1
  C  C2084  1  0.98064936  0.65786944  0.91655831  1
  H  H2085  1  0.85010240  0.52923613  0.75631881  1
  H  H2086  1  0.99376661  0.54978593  0.97015897  1
  H  H2087  1  0.98916681  0.67417204  0.88783434  1
  C  C2088  1  0.94128354  0.73557551  0.92926512  1
  H  H2089  1  0.95507602  0.74212451  0.82860960  1
  N  N2090  1  0.92682013  0.74261292  0.89184425  1
  N  N2091  1  0.80851973  0.63948131  0.99322868  1
  N  N2092  1  0.75834343  0.62864345  0.99805860  1
  C  C2093  1  0.97374533  0.62917303  0.75752090  1
  H  H2094  1  0.92337004  0.68502430  0.99253439  1
  C  C2095  1  0.58645513  0.75291703  0.90258574  1
  H  H2096  1  0.50217902  0.79096426  0.80678929  1
  C  C2097  1  0.54395378  0.76636696  0.91750565  1
  C  C2098  1  0.72121916  0.75014121  0.78846579  1
  O  O2099  1  0.61268097  0.78262798  0.90552981  1
  O  O2100  1  0.66495078  0.76702551  0.82577242  1
  C  C2101  1  0.70546188  0.98118782  0.90693587  1
  C  C2102  1  0.53949479  0.80069034  0.94729530  1
  Cu  Cu2103  1  0.60137089  0.95629987  0.94620841  1
  C  C2104  1  0.63578149  0.98196433  0.84991461  1
  H  H2105  1  0.67865878  0.96748924  0.91984227  1
  C  C2106  1  0.72778548  0.89504471  0.90390051  1
  C  C2107  1  0.69551073  0.78187500  0.81297493  1
  Cu  Cu2108  1  0.69299083  0.84882063  0.96273554  1
  O  O2109  1  0.69512392  0.88427483  0.92001864  1
  N  N2110  1  0.72055386  0.79133456  0.93405316  1
  Cu  Cu2111  1  0.68789543  0.88881835  0.82629856  1
  H  H2112  1  0.56415035  0.82235340  0.96081605  1
  O  O2113  1  0.66335716  0.95975709  0.82713166  1
  O  O2114  1  0.61327781  0.95646824  0.86729908  1
  N  N2115  1  0.70553508  0.89872792  0.77056221  1
  C  C2116  1  0.73554995  0.94766412  0.89691908  1
  O  O2117  1  0.70819554  0.82666800  0.82206552  1
  N  N2118  1  0.64464527  0.98733295  0.97030838  1
  C  C2119  1  0.67183523  0.96090576  0.98819367  1
  N  N2120  1  0.66417943  0.90954264  0.98802247  1
  N  N2121  1  0.59069306  0.90581330  0.98970503  1
  N  N2122  1  0.69158566  0.93251782  0.75363215  1
  N  N2123  1  0.74286170  0.79745305  0.90785777  1
  Cu  Cu2124  1  0.65874602  0.98830512  0.77878034  1
  C  C2125  1  0.71282347  0.98428090  0.99429553  1
  C  C2126  1  0.74757105  0.95926451  0.98279902  1
  C  C2127  1  0.50178026  0.80711033  0.95892606  1
  O  O2128  1  0.75313541  0.86341484  0.89495940  1
  H  H2129  1  0.75003312  0.92091798  0.97392832  1
  O  O2130  1  0.84582940  0.99650786  0.95615994  1
  N  N2131  1  0.93615938  0.77827351  0.94950127  1
  H  H2132  1  0.98644587  0.95865682  0.94818173  1
  O  O2133  1  0.82065010  0.92102103  0.95519528  1
  C  C2134  1  0.99228091  0.77112864  0.76248918  1
  C  C2135  1  0.78172823  0.98690054  0.97925748  1
  C  C2136  1  0.81651931  0.96425932  0.96089116  1
  H  H2137  1  0.79352694  0.94205441  0.87412825  1
  C  C2138  1  0.76962510  0.96707983  0.88132517  1
  H  H2139  1  0.76430209  0.80942764  0.78427185  1
  C  C2140  1  0.75541071  0.77209119  0.77302834  1
  O  O2141  1  0.99275826  0.80191871  0.78917945  1
  N  N2142  1  0.90679428  0.80499475  0.89055950  1
  N  N2143  1  0.90848700  0.82279893  0.92308198  1
