# generated using pymatgen
data_Cu2H11C16NO9
_symmetry_space_group_name_H-M   'P 1'
_cell_length_a   18.13637591
_cell_length_b   31.88664454
_cell_length_c   36.03261220
_cell_angle_alpha   90.00000000
_cell_angle_beta   90.00000000
_cell_angle_gamma   90.00000000
_symmetry_Int_Tables_number   1
_chemical_formula_structural   Cu2H11C16NO9
_chemical_formula_sum   'Cu64 H352 C512 N32 O288'
_cell_volume   20837.95409834
_cell_formula_units_Z   32
loop_
 _symmetry_equiv_pos_site_id
 _symmetry_equiv_pos_as_xyz
  1  'x, y, z'
loop_
 _atom_site_type_symbol
 _atom_site_label
 _atom_site_symmetry_multiplicity
 _atom_site_fract_x
 _atom_site_fract_y
 _atom_site_fract_z
 _atom_site_occupancy
  C  C0  1  0.11290988  0.21541326  0.03841130  1
  C  C1  1  0.09076598  0.21151340  0.07752068  1
  O  O2  1  0.07644582  0.17591406  0.09163628  1
  O  O3  1  0.34132455  0.18538022  0.04058512  1
  O  O4  1  0.37053824  0.03969241  0.22415735  1
  Cu  Cu5  1  0.44036364  0.07914484  0.21614097  1
  H  H6  1  0.06667208  0.15554845  0.02431817  1
  C  C7  1  0.09550237  0.18247057  0.01453876  1
  O  O8  1  0.43065417  0.03531356  0.12787377  1
  H  H9  1  0.06497853  0.01475965  0.09012320  1
  C  C10  1  0.41088355  0.21179941  0.02572127  1
  H  H11  1  0.35141129  0.19434849  0.06527382  1
  H  H12  1  0.33110583  0.00274669  0.11460491  1
  O  O13  1  0.07562612  0.24550838  0.09281417  1
  O  O14  1  0.14696293  0.00357864  0.03209422  1
  O  O15  1  0.03897627  0.03586269  0.15384568  1
  O  O16  1  0.45033006  0.22848549  0.04758784  1
  H  H17  1  0.14699561  0.11574960  0.00508535  1
  H  H18  1  0.25373437  0.19514716  0.00608656  1
  H  H19  1  0.06245133  0.49135162  0.20515686  1
  C  C20  1  0.14704571  0.25046197  0.02360778  1
  O  O21  1  0.03103308  0.49868311  0.14159572  1
  O  O22  1  0.11281753  0.45945619  0.02932814  1
  Cu  Cu23  1  0.00009194  0.27551288  0.07082560  1
  H  H24  1  0.16701605  0.27622528  0.04165995  1
  O  O25  1  0.01485507  0.35746041  0.01450869  1
  C  C26  1  0.20044740  0.13865562  0.34839518  1
  O  O27  1  0.19652158  0.10958359  0.32453385  1
  C  C28  1  0.23119536  0.09030366  0.40029874  1
  C  C29  1  0.21845417  0.13209255  0.38595542  1
  O  O30  1  0.19479998  0.17920710  0.33976562  1
  C  C31  1  0.19721242  0.20321452  0.37658076  1
  C  C32  1  0.21058740  0.17061361  0.40699596  1
  C  C33  1  0.21890300  0.08630650  0.43779986  1
  C  C34  1  0.19469583  0.21322139  0.45672315  1
  N  N35  1  0.20901495  0.17539837  0.44322461  1
  C  C36  1  0.38007682  0.14158048  0.39413562  1
  C  C37  1  0.20931111  0.07747453  0.47452826  1
  C  C38  1  0.25750754  0.05110945  0.37956627  1
  Cu  Cu39  1  0.27857173  0.08231192  0.30533096  1
  C  C40  1  0.23758254  0.23088197  0.48533494  1
  O  O41  1  0.29884089  0.05166885  0.35204517  1
  C  C42  1  0.38622194  0.17846542  0.37324063  1
  C  C43  1  0.38847439  0.17493313  0.33092034  1
  C  C44  1  0.37904527  0.21525843  0.39722474  1
  C  C45  1  0.39887478  0.21321544  0.43709392  1
  O  O46  1  0.38101670  0.19903278  0.30667697  1
  H  H47  1  0.14485888  0.22005713  0.37672104  1
  H  H48  1  0.24259718  0.22573469  0.37103735  1
  O  O49  1  0.40155827  0.12667466  0.31734670  1
  C  C50  1  0.37555460  0.10814847  0.41577074  1
  H  H51  1  0.40289114  0.11996608  0.34483802  1
  H  H52  1  0.09955675  0.22149996  0.41968676  1
  O  O53  1  0.34975783  0.05201656  0.28259178  1
  O  O54  1  0.42901562  0.18641651  0.45432677  1
  H  H55  1  0.38003846  0.11147705  0.44752089  1
  C  C56  1  0.13110529  0.23490468  0.44267425  1
  H  H57  1  0.20583628  0.04420930  0.48396785  1
  H  H58  1  0.20551381  0.10387526  0.49441654  1
  H  H59  1  0.37178526  0.07718110  0.40404665  1
  H  H60  1  0.28414041  0.21443132  0.49798574  1
  O  O61  1  0.23508358  0.01713857  0.39163303  1
  Cu  Cu62  1  0.47407275  0.10785538  0.28580313  1
  O  O63  1  0.02684874  0.08810807  0.38203012  1
  H  H64  1  0.04702900  0.10998864  0.36444761  1
  H  H65  1  0.02043177  0.06475928  0.44039113  1
  H  H66  1  0.10752212  0.15305972  0.46305033  1
  C  C67  1  0.34322015  0.02869476  0.25473636  1
  O  O68  1  0.43098705  0.00135629  0.41664841  1
  C  C69  1  0.47272332  0.01829623  0.39786546  1
  O  O70  1  0.07251553  0.14291650  0.48098865  1
  H  H71  1  0.06617447  0.16852523  0.49531326  1
  H  H72  1  0.21469343  0.48974360  0.35879469  1
  C  C73  1  0.31969947  0.31769820  0.35928366  1
  O  O74  1  0.47037275  0.44177310  0.32735198  1
  C  C75  1  0.38865145  0.38517421  0.34702802  1
  C  C76  1  0.27765982  0.38209042  0.38561160  1
  Cu  Cu77  1  0.43079033  0.27420410  0.49930900  1
  C  C78  1  0.11844924  0.27665006  0.45217700  1
  C  C79  1  0.05877968  0.30124477  0.43488045  1
  C  C80  1  0.37679022  0.34161710  0.34303459  1
  O  O81  1  0.38323948  0.25521246  0.45614641  1
  C  C82  1  0.34939672  0.25517213  0.38840148  1
  H  H83  1  0.34504221  0.43897449  0.37544323  1
  H  H84  1  0.22091987  0.32301635  0.39273526  1
  H  H85  1  0.15447946  0.32967622  0.48455326  1
  H  H86  1  0.34551707  0.25989028  0.33024897  1
  O  O87  1  0.17304062  0.38413368  0.42418942  1
  H  H88  1  0.20414287  0.48475095  0.43770892  1
  H  H89  1  0.46635401  0.44459064  0.48097425  1
  C  C90  1  0.22037694  0.27221046  0.49511537  1
  O  O91  1  0.08125006  0.49667151  0.44308107  1
  C  C92  1  0.34555009  0.28165891  0.42250553  1
  O  O93  1  0.47062873  0.34883854  0.44480229  1
  N  N94  1  0.32692002  0.27210716  0.35538713  1
  O  O95  1  0.02290626  0.28563228  0.40764702  1
  H  H96  1  0.29326869  0.27974204  0.43878552  1
  C  C97  1  0.22567851  0.40535458  0.40967005  1
  C  C98  1  0.26855733  0.33905335  0.38026520  1
  C  C99  1  0.33623361  0.40491240  0.37022599  1
  H  H100  1  0.36334549  0.31373271  0.41944048  1
  O  O101  1  0.23436242  0.44306956  0.41352544  1
  H  H102  1  0.42497689  0.45312895  0.34029716  1
  C  C103  1  0.16301959  0.29516215  0.47960506  1
  O  O104  1  0.04752695  0.33758196  0.44614278  1
  H  H105  1  0.41912680  0.32700572  0.32547550  1
  C  C106  1  0.45369901  0.40024273  0.32891649  1
  Cu  Cu107  1  0.07521460  0.39253027  0.42454922  1
  O  O108  1  0.49839304  0.37563402  0.30863275  1
  H  H109  1  0.00312267  0.47297403  0.39734883  1
  O  O110  1  0.20885295  0.49590630  0.33106226  1
  C  C111  1  0.44271560  0.07346299  0.69962345  1
  H  H112  1  0.39817792  0.13493651  0.71544358  1
  C  C113  1  0.39132422  0.10071630  0.71585306  1
  C  C114  1  0.44084809  0.02914644  0.70039564  1
  H  H115  1  0.22070248  0.03445195  0.68185801  1
  C  C116  1  0.32970756  0.08368852  0.73146441  1
  C  C117  1  0.31355235  0.03670453  0.73100958  1
  O  O118  1  0.28119512  0.21386904  0.70601881  1
  H  H119  1  0.30306393  0.19560390  0.68754324  1
  O  O120  1  0.21318290  0.01991993  0.60984131  1
  C  C121  1  0.24383038  0.01636738  0.70596372  1
  C  C122  1  0.27196506  0.10468354  0.74987154  1
  H  H123  1  0.19388114  0.00966062  0.72076577  1
  C  C124  1  0.37584109  0.01137533  0.71346711  1
  H  H125  1  0.48594506  0.01081948  0.68833617  1
  O  O126  1  0.40468401  0.21565031  0.74929593  1
  Cu  Cu127  1  0.23180019  0.19635973  0.74742773  1
  H  H128  1  0.02845011  0.45933950  0.72543666  1
  O  O129  1  0.49502316  0.31197633  0.71194305  1
  H  H130  1  0.49802843  0.49995487  0.63830086  1
  Cu  Cu131  1  0.33121706  0.25469212  0.74038673  1
  H  H132  1  0.49993664  0.47938433  0.72598579  1
  C  C133  1  0.49263086  0.44668441  0.73400602  1
  C  C134  1  0.49298633  0.35088453  0.71793138  1
  C  C135  1  0.36901160  0.34954656  0.65166503  1
  C  C136  1  0.40677951  0.46612777  0.66080034  1
  O  O137  1  0.43309314  0.36750946  0.72759483  1
  H  H138  1  0.32122888  0.42702728  0.67860853  1
  H  H139  1  0.22129359  0.30076640  0.71616381  1
  H  H140  1  0.48310498  0.36619784  0.61062169  1
  O  O141  1  0.39071971  0.31791262  0.63560694  1
  C  C142  1  0.46740267  0.47026456  0.63746144  1
  O  O143  1  0.48734203  0.29104851  0.54364901  1
  H  H144  1  0.44381215  0.43591021  0.71969104  1
  O  O145  1  0.32613097  0.49881867  0.70186650  1
  O  O146  1  0.34420795  0.26303995  0.53272517  1
  C  C147  1  0.46219186  0.39548960  0.62355232  1
  H  H148  1  0.34494525  0.27584613  0.55784040  1
  C  C149  1  0.37041271  0.42842202  0.66299047  1
  Cu  Cu150  1  0.34481276  0.33600836  0.72787947  1
  C  C151  1  0.39982230  0.39295324  0.64550034  1
  C  C152  1  0.27326610  0.29110381  0.52158126  1
  O  O153  1  0.26720635  0.32320316  0.53624349  1
  O  O154  1  0.26642542  0.30087288  0.73121784  1
  O  O155  1  0.32116271  0.34888103  0.67777520  1
  C  C156  1  0.49502346  0.43534373  0.61809778  1
  O  O157  1  0.48970248  0.45831520  0.50385992  1
  C  C158  1  0.22256441  0.12181469  0.88387290  1
  C  C159  1  0.18849926  0.08082323  0.88651004  1
  C  C160  1  0.27917983  0.13252745  0.90875321  1
  C  C161  1  0.35472762  0.06926748  0.84235514  1
  H  H162  1  0.29009336  0.10993991  0.93108565  1
  C  C163  1  0.41238954  0.04776269  0.81783487  1
  O  O164  1  0.20368277  0.05768643  0.91472585  1
  O  O165  1  0.15382486  0.06872708  0.85799988  1
  H  H166  1  0.15739610  0.22060415  0.92854826  1
  C  C167  1  0.14694940  0.21912388  0.95993070  1
  H  H168  1  0.34940592  0.10075539  0.83226708  1
  H  H169  1  0.37310274  0.07324454  0.87154910  1
  Cu  Cu170  1  0.18346487  0.07955906  0.81106061  1
  H  H171  1  0.30001071  0.05306847  0.84154249  1
  H  H172  1  0.16579572  0.14313035  0.83768963  1
  C  C173  1  0.20928506  0.15207228  0.85717767  1
  C  C174  1  0.30981827  0.17197848  0.90506027  1
  C  C175  1  0.24164942  0.19202948  0.85271799  1
  N  N176  1  0.36509592  0.18475882  0.93258906  1
  H  H177  1  0.07137482  0.18938155  0.81327800  1
  O  O178  1  0.09774607  0.11345499  0.79958108  1
  C  C179  1  0.08543155  0.11284052  0.95582591  1
  N  N180  1  0.07354463  0.15446215  0.95113532  1
  C  C181  1  0.35320399  0.18562516  0.97045563  1
  C  C182  1  0.04498582  0.11442424  0.77517140  1
  O  O183  1  0.19153099  0.20981527  0.79224034  1
  C  C184  1  0.28980387  0.20400711  0.87995750  1
  C  C185  1  0.22657855  0.22050265  0.82184697  1
  O  O186  1  0.07305031  0.02268351  0.94330030  1
  H  H187  1  0.42031387  0.13843431  0.77101475  1
  C  C188  1  0.10825788  0.18594488  0.97674646  1
  H  H189  1  0.32048797  0.23457401  0.88012827  1
  C  C190  1  0.03374203  0.04677536  0.92480226  1
  C  C191  1  0.43265833  0.19712726  0.92156207  1
  C  C192  1  0.03896943  0.09259405  0.92966754  1
  C  C193  1  0.41608443  0.20894210  0.98471462  1
  C  C194  1  0.02644401  0.19052724  0.79117489  1
  C  C195  1  0.02567680  0.16473886  0.92357393  1
  C  C196  1  0.45953347  0.14571451  0.79184344  1
  C  C197  1  0.13284747  0.09080406  0.98465783  1
  H  H198  1  0.40491502  0.11775098  0.94946252  1
  C  C199  1  0.46379495  0.21985651  0.76643459  1
  O  O200  1  0.21256924  0.08500462  0.76208096  1
  H  H201  1  0.04663846  0.23092913  0.92360046  1
  Cu  Cu202  1  0.01659735  0.05388641  0.85809776  1
  H  H203  1  0.40662407  0.17800188  0.86347616  1
  C  C204  1  0.42345995  0.00730223  0.80299932  1
  C  C205  1  0.45582272  0.18743573  0.88082780  1
  H  H206  1  0.43156195  0.07463571  0.93928078  1
  C  C207  1  0.00669078  0.15676255  0.76948179  1
  O  O208  1  0.39338344  0.08838463  0.95375040  1
  H  H209  1  0.18610551  0.07769631  0.97058829  1
  Cu  Cu210  1  0.16689056  0.00293955  0.92074694  1
  H  H211  1  0.01554168  0.21136024  0.88032443  1
  C  C212  1  0.49161567  0.00468029  0.78152417  1
  N  N213  1  0.47340067  0.06939483  0.80558575  1
  C  C214  1  0.46650053  0.21539417  0.95334965  1
  O  O215  1  0.47767475  0.06198823  0.89223642  1
  H  H216  1  0.29447784  0.02666503  0.75937554  1
  H  H217  1  0.47980015  0.21766453  0.87157636  1
  C  C218  1  0.16680931  0.24989571  0.98588907  1
  H  H219  1  0.48661256  0.06541741  0.86728865  1
  C  C220  1  0.00425070  0.12501187  0.90729592  1
  C  C221  1  0.00548683  0.20933343  0.91157137  1
  H  H222  1  0.49935247  0.16216432  0.87795638  1
  C  C223  1  0.48861705  0.18601671  0.79155572  1
  C  C224  1  0.48758584  0.11296801  0.81504085  1
  H  H225  1  0.27377628  0.14135767  0.99075592  1
  C  C226  1  0.29681291  0.17217600  0.99711089  1
  H  H227  1  0.10359306  0.06282280  0.99718030  1
  O  O228  1  0.28237673  0.14295826  0.75658170  1
  O  O229  1  0.02828340  0.08305811  0.75918753  1
  H  H230  1  0.21861070  0.48317832  0.75087450  1
  O  O231  1  0.03454712  0.26625552  0.83147458  1
  H  H232  1  0.48316188  0.44201332  0.76329161  1
  C  C233  1  0.02608138  0.44694548  0.90994066  1
  H  H234  1  0.35188955  0.48708115  0.99369939  1
  O  O235  1  0.20461406  0.39463576  0.81981523  1
  O  O236  1  0.23716415  0.31115074  0.99484994  1
  C  C237  1  0.37786791  0.44730915  0.91315743  1
  Cu  Cu238  1  0.27210815  0.37986620  0.85862433  1
  C  C239  1  0.40452718  0.47829805  0.97949720  1
  C  C240  1  0.12119372  0.47215541  0.96389803  1
  Cu  Cu241  1  0.22287440  0.30021762  0.85626380  1
  C  C242  1  0.07073318  0.37794901  0.83754193  1
  O  O243  1  0.25520129  0.25498661  0.82647303  1
  H  H244  1  0.41843528  0.44661530  0.98791162  1
  H  H245  1  0.10514692  0.32794011  0.91984920  1
  C  C246  1  0.09566256  0.46536768  0.92561487  1
  O  O247  1  0.34057283  0.37276187  0.89671598  1
  O  O248  1  0.22859261  0.28736591  0.93777200  1
  H  H249  1  0.02261490  0.35929659  0.94861242  1
  C  C250  1  0.11419025  0.35020982  0.89606885  1
  C  C251  1  0.35099369  0.40381466  0.92446087  1
  Cu  Cu252  1  0.27844405  0.33007053  0.91754929  1
  C  C253  1  0.02720340  0.42618681  0.77645637  1
  O  O254  1  0.02789367  0.43539818  0.99050107  1
  C  C255  1  0.08906143  0.45591594  0.99695066  1
  C  C256  1  0.04958690  0.35569750  0.87045618  1
  O  O257  1  0.17351721  0.49162986  0.82754588  1
  H  H258  1  0.17457935  0.46269263  0.82248833  1
  O  O259  1  0.00111494  0.44618017  0.87879548  1
  C  C260  1  0.39485603  0.46227557  0.87559974  1
  C  C261  1  0.39548987  0.48086361  0.93714713  1
  O  O262  1  0.19813052  0.34402635  0.88543906  1
  H  H263  1  0.13211540  0.38076885  0.90804069  1
  O  O264  1  0.33498492  0.39566287  0.95542866  1
  H  H265  1  0.14153744  0.48099515  0.87463477  1
  N  N266  1  0.14546871  0.48349569  0.90284293  1
  C  C267  1  0.06208313  0.40077315  0.80277863  1
  O  O268  1  0.40223892  0.47207480  0.81592162  1
  O  O269  1  0.34662508  0.41106726  0.83173791  1
  C  C270  1  0.21178310  0.28583664  0.97287350  1
  C  C271  1  0.38112418  0.44340862  0.84042910  1
  C  C272  1  0.13378038  0.39150869  0.81986975  1
  C  C273  1  0.18396848  0.49760442  0.95999032  1
  H  H274  1  0.13055943  0.63725937  0.09192933  1
  C  C275  1  0.14135905  0.64979430  0.11951263  1
  C  C276  1  0.09955312  0.63827084  0.15059252  1
  C  C277  1  0.20360557  0.67380211  0.12524204  1
  C  C278  1  0.22347015  0.69013594  0.15985510  1
  O  O279  1  0.29365221  0.58011809  0.08698459  1
  Cu  Cu280  1  0.32421156  0.62278418  0.05406331  1
  O  O281  1  0.25149339  0.65950539  0.06622314  1
  C  C282  1  0.25842231  0.68154885  0.09585739  1
  H  H283  1  0.27683920  0.70545153  0.16587095  1
  O  O284  1  0.30810740  0.70893895  0.09986746  1
  C  C285  1  0.11135592  0.65639081  0.18513418  1
  C  C286  1  0.17789754  0.67847858  0.18904039  1
  H  H287  1  0.07328088  0.64941358  0.20845878  1
  H  H288  1  0.36120335  0.59438499  0.17083501  1
  C  C289  1  0.22966228  0.56726009  0.09335034  1
  C  C290  1  0.21232730  0.55110288  0.13038588  1
  C  C291  1  0.33788375  0.54511254  0.21418374  1
  C  C292  1  0.34094229  0.56168101  0.17375407  1
  O  O293  1  0.18348729  0.56618833  0.06688983  1
  H  H294  1  0.38285559  0.54582238  0.15497345  1
  N  N295  1  0.22101455  0.54198416  0.19155208  1
  C  C296  1  0.26178789  0.55195120  0.16094141  1
  C  C297  1  0.14499986  0.53286726  0.14297732  1
  C  C298  1  0.26309951  0.53528535  0.22499282  1
  O  O299  1  0.40312886  0.59373771  0.03264195  1
  H  H300  1  0.05899875  0.71281895  0.10791767  1
  C  C301  1  0.14846342  0.53199166  0.18172043  1
  O  O302  1  0.38136016  0.64874918  0.20054262  1
  N  N303  1  0.19887002  0.68906321  0.22801738  1
  O  O304  1  0.07897300  0.51541182  0.08607529  1
  C  C305  1  0.09738172  0.74084991  0.23816950  1
  Cu  Cu306  1  0.15182873  0.51039609  0.05077912  1
  H  H307  1  0.04431146  0.55034785  0.20497517  1
  C  C308  1  0.46369272  0.61026582  0.01941327  1
  H  H309  1  0.05995298  0.71548664  0.22780588  1
  C  C310  1  0.47162032  0.54526509  0.23447590  1
  C  C311  1  0.02852556  0.61559925  0.14653530  1
  C  C312  1  0.30843865  0.64393043  0.22064717  1
  H  H313  1  0.26910876  0.62851222  0.20061479  1
  C  C314  1  0.08501259  0.51496394  0.12126350  1
  C  C315  1  0.08531949  0.52433386  0.20872544  1
  H  H316  1  0.02995873  0.69773967  0.02348700  1
  H  H317  1  0.16089842  0.58637407  0.22515400  1
  O  O318  1  0.01501676  0.60607395  0.11353575  1
  C  C319  1  0.39138671  0.54485250  0.24217571  1
  O  O320  1  0.49110055  0.55004156  0.20286614  1
  O  O321  1  0.22983831  0.50701057  0.02001420  1
  C  C322  1  0.26432308  0.67557485  0.24203340  1
  H  H323  1  0.41420954  0.65673331  0.22110585  1
  O  O324  1  0.00900382  0.72579496  0.17202730  1
  O  O325  1  0.01171907  0.70015187  0.09657228  1
  O  O326  1  0.49815106  0.63412662  0.03746643  1
  O  O327  1  0.13386025  0.60188751  0.24373970  1
  H  H328  1  0.16065776  0.62859171  0.24348224  1
  O  O329  1  0.08824896  0.52250993  0.24848437  1
  H  H330  1  0.33766676  0.62118125  0.24068762  1
  C  C331  1  0.36201982  0.78946350  0.16258098  1
  O  O332  1  0.35957060  0.97765237  0.11684492  1
  C  C333  1  0.49161003  0.96799078  0.13597421  1
  C  C334  1  0.01118298  0.78209088  0.10830492  1
  N  N335  1  0.04119001  0.84994380  0.11720597  1
  C  C336  1  0.21952780  0.93023080  0.14966195  1
  C  C337  1  0.01892071  0.99997435  0.15782962  1
  Cu  Cu338  1  0.29431464  0.76513531  0.09483022  1
  H  H339  1  0.01037700  0.91410306  0.16555491  1
  C  C340  1  0.07098165  0.82951487  0.14752690  1
  C  C341  1  0.34284870  0.83493205  0.24226150  1
  H  H342  1  0.11035081  0.91477343  0.01320673  1
  O  O343  1  0.49941099  0.88305239  0.04419755  1
  C  C344  1  0.29993994  0.96108275  0.22221956  1
  C  C345  1  0.00276049  0.82466811  0.09474779  1
  H  H346  1  0.36875841  0.77762548  0.21437159  1
  H  H347  1  0.39722717  0.88472368  0.12915651  1
  H  H348  1  0.32638904  0.96906276  0.19560079  1
  H  H349  1  0.16965673  0.83799977  0.17955311  1
  C  C350  1  0.31747476  0.82694374  0.17087694  1
  C  C351  1  0.48141595  0.92639215  0.13156030  1
  C  C352  1  0.06141795  0.98149409  0.09590562  1
  C  C353  1  0.07901495  0.90905034  0.07680003  1
  O  O354  1  0.09218341  0.76818996  0.19967876  1
  C  C355  1  0.04776754  0.89557930  0.10989644  1
  C  C356  1  0.02803296  0.92352425  0.13770958  1
  H  H357  1  0.09219649  0.88557337  0.05621160  1
  O  O358  1  0.38220423  0.76363385  0.18855124  1
  H  H359  1  0.21608820  0.87033609  0.06242906  1
  O  O360  1  0.27577448  0.81796299  0.08412421  1
  H  H361  1  0.20388544  0.95366163  0.17247314  1
  C  C362  1  0.12912699  0.96806924  0.03629730  1
  C  C363  1  0.43107740  0.99845239  0.12828584  1
  H  H364  1  0.11585615  0.88695026  0.17309861  1
  H  H365  1  0.49419177  0.86106927  0.13810812  1
  H  H366  1  0.25602372  0.95156563  0.13046961  1
  H  H367  1  0.17031801  0.91895374  0.13248258  1
  C  C368  1  0.27804489  0.85163886  0.14425357  1
  C  C369  1  0.04659445  0.78804185  0.14334116  1
  C  C370  1  0.08992549  0.95234826  0.06994151  1
  O  O371  1  0.22535599  0.88147141  0.08707954  1
  N  N372  1  0.28213817  0.88677580  0.19793836  1
  H  H373  1  0.08915515  0.84934085  0.20818385  1
  C  C374  1  0.31233475  0.84706074  0.20589719  1
  C  C375  1  0.11205226  0.85245591  0.17840476  1
  H  H376  1  0.12211749  0.82767661  0.00546999  1
  C  C377  1  0.03713983  0.96734064  0.12909206  1
  C  C378  1  0.26975879  0.91947573  0.22564953  1
  C  C379  1  0.26067634  0.84872201  0.10367112  1
  O  O380  1  0.37650597  0.78035136  0.12899425  1
  C  C381  1  0.04786285  0.75797188  0.17353175  1
  C  C382  1  0.26094075  0.89121481  0.16282361  1
  C  C383  1  0.46017963  0.88748311  0.12884859  1
  O  O384  1  0.15179192  0.93462408  0.00686662  1
  O  O385  1  0.13240497  0.76027536  0.00865406  1
  C  C386  1  0.27134359  0.69440244  0.27842585  1
  C  C387  1  0.34075138  0.68872615  0.29919569  1
  O  O388  1  0.39850066  0.66284716  0.28405218  1
  H  H389  1  0.43823923  0.67036945  0.30300471  1
  C  C390  1  0.20879775  0.72187031  0.28376721  1
  O  O391  1  0.35311926  0.70599280  0.32798836  1
  C  C392  1  0.37171416  0.53782708  0.27980497  1
  O  O393  1  0.05885314  0.65277158  0.45967576  1
  H  H394  1  0.41530179  0.53884608  0.30135572  1
  H  H395  1  0.07220972  0.63611684  0.47944982  1
  C  C396  1  0.10118948  0.54829242  0.48647229  1
  C  C397  1  0.29869554  0.52606919  0.28625296  1
  O  O398  1  0.20038272  0.51021072  0.45424211  1
  C  C399  1  0.12608902  0.51621729  0.45993911  1
  C  C400  1  0.24030684  0.52311472  0.26087675  1
  H  H401  1  0.18347167  0.51244663  0.26824565  1
  H  H402  1  0.27517982  0.73315056  0.34087959  1
  H  H403  1  0.24148389  0.59412238  0.46388475  1
  H  H404  1  0.06293405  0.64039008  0.43670639  1
  O  O405  1  0.32869559  0.50747471  0.34729519  1
  C  C406  1  0.28128341  0.51038779  0.32460795  1
  H  H407  1  0.26688754  0.55194925  0.49369241  1
  C  C408  1  0.02723179  0.56017106  0.49857405  1
  C  C409  1  0.23229820  0.58109257  0.49218632  1
  H  H410  1  0.00324120  0.50729492  0.46029162  1
  H  H411  1  0.09281417  0.55221224  0.25217627  1
  C  C412  1  0.16422491  0.71709273  0.25017513  1
  H  H413  1  0.14522764  0.77567350  0.41724669  1
  H  H414  1  0.09461765  0.89633584  0.25790606  1
  H  H415  1  0.28974486  0.99161446  0.31369634  1
  C  C416  1  0.00795161  0.81906468  0.36429509  1
  C  C417  1  0.02140081  0.85263734  0.28204520  1
  H  H418  1  0.02162889  0.87010639  0.34127994  1
  C  C419  1  0.30605467  0.98723243  0.25462018  1
  H  H420  1  0.43317363  0.93156276  0.46258095  1
  H  H421  1  0.07375647  0.75894689  0.26116596  1
  C  C422  1  0.19025589  0.75030225  0.31294818  1
  O  O423  1  0.05006732  0.86468985  0.36359815  1
  C  C424  1  0.32376470  0.89841009  0.47122895  1
  C  C425  1  0.24175002  0.90443540  0.26025555  1
  O  O426  1  0.02078256  0.79712915  0.39101423  1
  H  H427  1  0.12964498  0.84264187  0.26916634  1
  H  H428  1  0.36797207  0.95551435  0.49480386  1
  H  H429  1  0.22405296  0.87213299  0.26405160  1
  C  C430  1  0.08171280  0.86217520  0.26511396  1
  C  C431  1  0.28367498  0.97236693  0.28861399  1
  Cu  Cu432  1  0.14618890  0.86898897  0.37555434  1
  O  O433  1  0.32468460  0.91525219  0.39534148  1
  C  C434  1  0.20186497  0.92462747  0.32413601  1
  Cu  Cu435  1  0.28014117  0.96484816  0.38903526  1
  O  O436  1  0.15862928  0.78559371  0.47566354  1
  C  C437  1  0.24181491  0.84107208  0.46645896  1
  O  O438  1  0.20329425  0.95048477  0.35013890  1
  O  O439  1  0.14119031  0.77436854  0.30970295  1
  C  C440  1  0.24351644  0.93368806  0.28974808  1
  O  O441  1  0.17152227  0.80268258  0.41150534  1
  O  O442  1  0.24747111  0.86474460  0.38441293  1
  O  O443  1  0.37471612  0.80542933  0.25466094  1
  O  O444  1  0.23975891  0.75406629  0.34903260  1
  C  C445  1  0.28882957  0.88499676  0.40817610  1
  O  O446  1  0.17042054  0.88869949  0.32740800  1
  H  H447  1  0.04041017  0.93678440  0.45215113  1
  H  H448  1  0.34120053  0.85936818  0.26510162  1
  Cu  Cu449  1  0.24415652  0.80634000  0.36826658  1
  C  C450  1  0.28279866  0.87178771  0.44562763  1
  H  H451  1  0.36428739  0.96064272  0.44409597  1
  C  C452  1  0.37206312  0.93739608  0.46893961  1
  C  C453  1  0.18958429  0.80734552  0.45370144  1
  O  O454  1  0.10620807  0.91664035  0.49660126  1
  C  C455  1  0.12791348  0.56284764  0.63587823  1
  C  C456  1  0.20880342  0.62829059  0.56755893  1
  H  H457  1  0.23037834  0.59563201  0.56636187  1
  Cu  Cu458  1  0.35998450  0.57372893  0.63668238  1
  O  O459  1  0.25792433  0.56581434  0.65260861  1
  C  C460  1  0.24206750  0.65893422  0.59057225  1
  C  C461  1  0.11108328  0.59748029  0.65806144  1
  H  H462  1  0.15180848  0.61564012  0.67474811  1
  O  O463  1  0.33811249  0.60796344  0.60015143  1
  C  C464  1  0.31199310  0.64412143  0.61014854  1
  C  C465  1  0.20689240  0.54847146  0.63380595  1
  O  O466  1  0.39907677  0.54051924  0.66915108  1
  O  O467  1  0.33920768  0.66471741  0.63398774  1
  C  C468  1  0.21273358  0.69853121  0.59547455  1
  C  C469  1  0.14780723  0.70667389  0.57534892  1
  C  C470  1  0.14658368  0.63764381  0.54704620  1
  C  C471  1  0.11487288  0.67744955  0.55211017  1
  H  H472  1  0.06204354  0.68473769  0.53814699  1
  N  N473  1  0.11479357  0.60285334  0.52593527  1
  C  C474  1  0.07570066  0.54090036  0.61470577  1
  C  C475  1  0.05441369  0.70838993  0.64286462  1
  H  H476  1  0.09185803  0.51537933  0.59657928  1
  O  O477  1  0.21921418  0.52044936  0.61152061  1
  Cu  Cu478  1  0.29981733  0.54102949  0.73240955  1
  C  C479  1  0.04203979  0.59346015  0.52444547  1
  C  C480  1  0.03736222  0.60894359  0.65875556  1
  H  H481  1  0.10343825  0.67304737  0.71400496  1
  H  H482  1  0.01973559  0.72732112  0.62376920  1
  H  H483  1  0.08423446  0.68290853  0.62668316  1
  H  H484  1  0.09623649  0.72908078  0.65565862  1
  H  H485  1  0.23992668  0.72379247  0.60869998  1
  H  H486  1  0.01871747  0.63017919  0.57334821  1
  N  N487  1  0.00842407  0.64437319  0.68180144  1
  C  C488  1  0.00655359  0.68636314  0.67214508  1
  C  C489  1  0.11299262  0.74934102  0.57968967  1
  H  H490  1  0.10863466  0.63007115  0.72045875  1
  O  O491  1  0.12377918  0.65479672  0.73250601  1
  C  C492  1  0.37424000  0.50470574  0.67666294  1
  C  C493  1  0.00167518  0.55387416  0.61815384  1
  H  H494  1  0.48171411  0.50832991  0.58125985  1
  H  H495  1  0.46187348  0.61648246  0.73578660  1
  H  H496  1  0.26102798  0.60496242  0.51043967  1
  C  C497  1  0.15276828  0.57562327  0.50340199  1
  C  C498  1  0.20219087  0.99501840  0.58560843  1
  C  C499  1  0.25412811  0.85329116  0.50395962  1
  O  O500  1  0.06230017  0.91937878  0.55432599  1
  N  N501  1  0.30506011  0.88506437  0.50525029  1
  H  H502  1  0.48062056  0.90994328  0.65732662  1
  O  O503  1  0.46211617  0.98028922  0.63202383  1
  O  O504  1  0.45104484  0.84431040  0.51275933  1
  H  H505  1  0.44242827  0.86906650  0.50055615  1
  H  H506  1  0.33868140  0.99983160  0.61325220  1
  H  H507  1  0.27393339  0.82498401  0.56113075  1
  Cu  Cu508  1  0.04968981  0.96579367  0.58702353  1
  O  O509  1  0.41493037  0.85741550  0.65265127  1
  H  H510  1  0.20380417  0.88181750  0.64096513  1
  C  C511  1  0.17647372  0.92931170  0.66634136  1
  H  H512  1  0.46006120  0.89410347  0.70524113  1
  H  H513  1  0.40698428  0.97802145  0.63868818  1
  H  H514  1  0.43184171  0.89105365  0.55214345  1
  H  H515  1  0.18967389  0.86126857  0.55636102  1
  O  O516  1  0.06292348  0.76536412  0.56433188  1
  O  O517  1  0.29183435  0.84104247  0.64881391  1
  H  H518  1  0.41229772  0.82927716  0.65969572  1
  H  H519  1  0.14058596  0.80150378  0.59812957  1
  C  C520  1  0.33202570  0.97461083  0.59199151  1
  C  C521  1  0.27426004  0.97527095  0.69357261  1
  C  C522  1  0.37959685  0.93687276  0.68353206  1
  H  H523  1  0.18867069  0.81029650  0.53476706  1
  C  C524  1  0.45911692  0.92139420  0.68504697  1
  C  C525  1  0.46394666  0.95300506  0.60265392  1
  O  O526  1  0.13540445  0.98980671  0.57170589  1
  C  C527  1  0.22700282  0.83625815  0.54132102  1
  C  C528  1  0.33517776  0.86788500  0.65487746  1
  O  O529  1  0.12947611  0.95022254  0.67935629  1
  H  H530  1  0.02089892  0.93841567  0.67210279  1
  O  O531  1  0.16017107  0.77419113  0.60451513  1
  C  C532  1  0.32002450  0.91192674  0.53820725  1
  C  C533  1  0.25547436  0.93623329  0.67620356  1
  H  H534  1  0.20748831  0.93282389  0.53005547  1
  C  C535  1  0.05596868  0.91958607  0.51793407  1
  C  C536  1  0.38679413  0.91419714  0.55720489  1
  O  O537  1  0.15447165  0.89414082  0.64472585  1
  C  C538  1  0.32042881  0.91125560  0.67033725  1
  N  N539  1  0.35104010  0.97299168  0.69947700  1
  C  C540  1  0.25861168  0.93772609  0.54574151  1
  C  C541  1  0.26344085  0.96684223  0.57415524  1
  C  C542  1  0.38868820  0.94664196  0.58322702  1
  H  H543  1  0.40353327  0.83312412  0.51360334  1
  C  C544  1  0.27472119  0.60242354  0.82850353  1
  C  C545  1  0.30555451  0.61569039  0.86172585  1
  C  C546  1  0.25740096  0.62307513  0.89096733  1
  C  C547  1  0.18039987  0.61814785  0.88606651  1
  C  C548  1  0.19897894  0.59624330  0.82081518  1
  C  C549  1  0.15495736  0.60431294  0.85196865  1
  H  H550  1  0.17579147  0.58788313  0.79386888  1
  H  H551  1  0.14067473  0.62354681  0.90846055  1
  C  C552  1  0.28942598  0.63745141  0.92664838  1
  H  H553  1  0.36714070  0.62248049  0.86599994  1
  O  O554  1  0.38755136  0.59922163  0.79542952  1
  O  O555  1  0.24865822  0.64109920  0.95681981  1
  C  C556  1  0.32166404  0.59486886  0.79462582  1
  N  N557  1  0.07337199  0.61280370  0.84637406  1
  C  C558  1  0.09669253  0.68144035  0.81484461  1
  O  O559  1  0.35487558  0.64195028  0.92879394  1
  C  C560  1  0.44835406  0.56246605  0.96702486  1
  H  H561  1  0.15167869  0.67152531  0.82636283  1
  H  H562  1  0.42665726  0.54083248  0.82656005  1
  O  O563  1  0.27379304  0.54836349  0.97741705  1
  Cu  Cu564  1  0.26059980  0.60244753  0.99325876  1
  H  H565  1  0.09521232  0.68024005  0.78303170  1
  H  H566  1  0.08450561  0.71426268  0.82547341  1
  H  H567  1  0.40077545  0.55073237  0.98210186  1
  C  C568  1  0.25847712  0.52798378  0.90035312  1
  C  C569  1  0.47060287  0.54560946  0.93267835  1
  O  O570  1  0.28627408  0.58602201  0.76391615  1
  O  O571  1  0.05266295  0.59885938  0.94779129  1
  H  H572  1  0.01246320  0.61736691  0.94889929  1
  H  H573  1  0.31422434  0.52479638  0.91505082  1
  C  C574  1  0.23269178  0.51813063  0.98700917  1
  C  C575  1  0.04549340  0.64886202  0.83262991  1
  H  H576  1  0.07095403  0.54762668  0.89877818  1
  H  H577  1  0.10943718  0.53645307  0.85184076  1
  C  C578  1  0.05782147  0.54189394  0.86835649  1
  H  H579  1  0.01807362  0.51522268  0.86438888  1
  H  H580  1  0.26208799  0.52042392  0.86813380  1
  C  C581  1  0.44012457  0.50971465  0.83869321  1
  C  C582  1  0.02293726  0.58289175  0.85355586  1
  N  N583  1  0.43080494  0.51025956  0.91685695  1
  H  H584  1  0.24767899  0.56299335  0.90056275  1
  C  C585  1  0.01600517  0.74409775  0.96747539  1
  H  H586  1  0.49802472  0.50184636  0.82911446  1
  C  C587  1  0.49145966  0.59335276  0.98226223  1
  C  C588  1  0.19844323  0.50423593  0.92142552  1
  C  C589  1  0.43079860  0.50231028  0.87877399  1
  H  H590  1  0.02633376  0.57470794  0.95957857  1
  H  H591  1  0.19754729  0.50385399  0.80856873  1
  O  O592  1  0.22980429  0.51125864  0.75444456  1
  H  H593  1  0.44696369  0.50048662  0.98854037  1
  O  O594  1  0.49950893  0.93046500  0.76057172  1
  O  O595  1  0.32589772  0.96728597  0.90276473  1
  O  O596  1  0.06661810  0.83395950  0.78994811  1
  H  H597  1  0.45656187  0.98502975  0.89478054  1
  H  H598  1  0.41558261  0.89675068  0.98858104  1
  C  C599  1  0.34451695  0.94426757  0.93001662  1
  C  C600  1  0.08063613  0.75330240  0.99017290  1
  Cu  Cu601  1  0.20607351  0.94114941  0.95917205  1
  H  H602  1  0.05317138  0.88939911  0.94823705  1
  O  O603  1  0.29765845  0.92229855  0.94637117  1
  O  O604  1  0.47242571  0.82847373  0.86379326  1
  O  O605  1  0.30831600  0.98477746  0.82771719  1
  C  C606  1  0.42120486  0.94260632  0.94084718  1
  O  O607  1  0.00791848  0.77744102  0.80736196  1
  O  O608  1  0.16632662  0.93885470  0.86514676  1
  C  C609  1  0.47310471  0.96940080  0.92203094  1
  C  C610  1  0.12427341  0.92925932  0.89279881  1
  O  O611  1  0.37127279  0.94200503  0.79052153  1
  C  C612  1  0.36738222  0.97502365  0.80748705  1
  H  H613  1  0.44559881  0.93661817  0.77166717  1
  H  H614  1  0.10059854  0.88340936  0.83131020  1
  C  C615  1  0.07379425  0.87068854  0.85662500  1
  Cu  Cu616  1  0.26046750  0.95565593  0.86547288  1
  C  C617  1  0.08092141  0.89133205  0.89065126  1
  C  C618  1  0.03388560  0.81433227  0.81307254  1
  H  H619  1  0.04923401  0.84378166  0.99082339  1
  C  C620  1  0.00513821  0.83658438  0.91629791  1
  C  C621  1  0.03650396  0.83261157  0.85198205  1
  C  C622  1  0.04408561  0.87446706  0.92093858  1
  O  O623  1  0.13231802  0.94913632  0.92284716  1
  C  C624  1  0.44716868  0.91877653  0.97158029  1
  O  O625  1  0.09681916  0.85326712  0.99648258  1
  C  C626  1  0.79814716  0.15079197  0.07322923  1
  C  C627  1  0.73751048  0.17797990  0.07550466  1
  C  C628  1  0.68903082  0.15751733  0.10162948  1
  C  C629  1  0.61222606  0.17398144  0.11590059  1
  N  N630  1  0.72802669  0.12734994  0.11754410  1
  C  C631  1  0.71232432  0.10787139  0.15432046  1
  C  C632  1  0.79144134  0.11667378  0.09834034  1
  C  C633  1  0.83852220  0.07833607  0.10124551  1
  C  C634  1  0.87223719  0.15361791  0.05436878  1
  H  H635  1  0.88930658  0.08130391  0.11867744  1
  H  H636  1  0.81307884  0.04871651  0.11399188  1
  O  O637  1  0.92475054  0.13560183  0.07011092  1
  C  C638  1  0.64401718  0.11300161  0.17188272  1
  C  C639  1  0.77693336  0.09426298  0.17293589  1
  H  H640  1  0.83149622  0.08853418  0.15984425  1
  C  C641  1  0.63769344  0.10189127  0.20926084  1
  C  C642  1  0.61770582  0.04794835  0.06291396  1
  H  H643  1  0.59513058  0.12391989  0.15455731  1
  C  C644  1  0.61332916  0.08932167  0.04866353  1
  H  H645  1  0.56441522  0.10955591  0.05302948  1
  C  C646  1  0.73098425  0.21878357  0.05662042  1
  C  C647  1  0.67625149  0.02339475  0.05102606  1
  H  H648  1  0.70477747  0.04668624  0.13533796  1
  N  N649  1  0.56602992  0.03173305  0.09043480  1
  C  C650  1  0.76627206  0.08419881  0.21020728  1
  C  C651  1  0.69998137  0.08911125  0.22938874  1
  C  C652  1  0.56549228  0.10793725  0.22677692  1
  H  H653  1  0.85664154  0.21604240  0.19755763  1
  H  H654  1  0.60760685  0.20904263  0.10738638  1
  H  H655  1  0.56547268  0.15646680  0.10607520  1
  O  O656  1  0.88046036  0.05070616  0.20923498  1
  C  C657  1  0.71132955  0.20887680  0.23190853  1
  H  H658  1  0.86337148  0.06924561  0.07280845  1
  C  C659  1  0.60237355  0.01285204  0.12013437  1
  C  C660  1  0.67986686  0.01486578  0.13314347  1
  C  C661  1  0.82973178  0.06575332  0.23029230  1
  O  O662  1  0.93481927  0.19775450  0.13490967  1
  C  C663  1  0.73434898  0.04115611  0.02907034  1
  C  C664  1  0.66682090  0.10317122  0.02371532  1
  C  C665  1  0.80394558  0.01516879  0.02195943  1
  O  O666  1  0.87603053  0.16911601  0.02235391  1
  H  H667  1  0.67530541  0.22972595  0.21578903  1
  H  H668  1  0.74631185  0.19189042  0.21145891  1
  H  H669  1  0.60690555  0.17150446  0.14619147  1
  C  C670  1  0.73379969  0.08292471  0.01605473  1
  H  H671  1  0.67360604  0.18636325  0.24672824  1
  O  O672  1  0.78573963  0.23317757  0.03823341  1
  O  O673  1  0.66951671  0.23727062  0.05557296  1
  O  O674  1  0.59834042  0.16414765  0.01165361  1
  C  C675  1  0.90771688  0.23276575  0.12467421  1
  Cu  Cu676  1  0.59873900  0.21864258  0.02655262  1
  Cu  Cu677  1  0.98912897  0.15942375  0.10535766  1
  O  O678  1  0.51115530  0.11985410  0.20938917  1
  H  H679  1  0.51778988  0.01940880  0.07981238  1
  C  C680  1  0.65508800  0.14415862  0.00423945  1
  C  C681  1  0.84387296  0.24709904  0.18664920  1
  O  O682  1  0.91699120  0.24552113  0.09306296  1
  O  O683  1  0.85379623  0.02236443  0.00288701  1
  N  N684  1  0.80367077  0.26413455  0.24927375  1
  O  O685  1  0.80393469  0.41533222  0.04745817  1
  Cu  Cu686  1  0.72475454  0.40543138  0.08205249  1
  C  C687  1  0.86645875  0.26079070  0.15070835  1
  C  C688  1  0.96949766  0.32692438  0.01195377  1
  C  C689  1  0.78950168  0.48665240  0.03282478  1
  O  O690  1  0.90397783  0.45126774  0.03439164  1
  O  O691  1  0.58076299  0.48061808  0.04438286  1
  C  C692  1  0.79943371  0.32535933  0.16107740  1
  C  C693  1  0.84455574  0.30011728  0.13901425  1
  Cu  Cu694  1  0.79125603  0.48075064  0.21392782  1
  O  O695  1  0.66405600  0.46441563  0.24243637  1
  Cu  Cu696  1  0.79090334  0.40314460  0.21132783  1
  C  C697  1  0.71044692  0.49089174  0.03615551  1
  H  H698  1  0.98746246  0.49808667  0.12133252  1
  O  O699  1  0.73961257  0.39034032  0.16729936  1
  O  O700  1  0.65691334  0.42591005  0.05078768  1
  C  C701  1  0.77616437  0.36698204  0.14614179  1
  O  O702  1  0.87924101  0.47088648  0.23403152  1
  C  C703  1  0.65079691  0.46401146  0.04441751  1
  O  O704  1  0.79264291  0.37999994  0.11454588  1
  Cu  Cu705  1  0.96533085  0.40683223  0.02427761  1
  H  H706  1  0.54865961  0.45556449  0.04463238  1
  C  C707  1  0.78138398  0.31526605  0.19844448  1
  C  C708  1  0.81249612  0.27645344  0.21006153  1
  O  O709  1  0.94016626  0.31172738  0.04075026  1
  H  H710  1  0.75361804  0.33786460  0.21662831  1
  C  C711  1  0.83304863  0.44956958  0.03935460  1
  H  H712  1  0.86034407  0.30930629  0.11186665  1
  O  O713  1  0.70583439  0.39956912  0.24027544  1
  H  H714  1  0.89659543  0.33233981  0.24717255  1
  Cu  Cu715  1  0.90556867  0.06568817  0.29400377  1
  O  O716  1  0.77084916  0.17286683  0.34932564  1
  C  C717  1  0.74209079  0.18423615  0.31666031  1
  O  O718  1  0.69401813  0.16450201  0.30321023  1
  O  O719  1  0.86454157  0.22979121  0.36827883  1
  Cu  Cu720  1  0.77447015  0.21075205  0.38658854  1
  C  C721  1  0.77657871  0.22152898  0.29761553  1
  O  O722  1  0.92292429  0.01195381  0.29234975  1
  C  C723  1  0.96007761  0.02309931  0.36948310  1
  O  O724  1  0.82599060  0.06093555  0.26407052  1
  O  O725  1  0.56022245  0.09979006  0.26138468  1
  O  O726  1  0.98685348  0.07229614  0.32398309  1
  C  C727  1  0.76093945  0.23079216  0.25952105  1
  C  C728  1  0.99311503  0.06178013  0.35659166  1
  C  C729  1  0.98864087  0.03451326  0.43991542  1
  H  H730  1  0.69540317  0.08260316  0.25964940  1
  O  O731  1  0.77466962  0.24537572  0.42635976  1
  H  H732  1  0.97347210  0.02122284  0.46761690  1
  C  C733  1  0.96344706  0.01184292  0.40925494  1
  O  O734  1  0.50927178  0.03617240  0.37682853  1
  C  C735  1  0.82826604  0.25329666  0.30963198  1
  H  H736  1  0.77646331  0.33980931  0.37422208  1
  C  C737  1  0.98182195  0.46322914  0.36950060  1
  C  C738  1  0.60887090  0.41466881  0.49699306  1
  C  C739  1  0.86820371  0.25749879  0.34299185  1
  H  H740  1  0.53877893  0.39468845  0.30336771  1
  N  N741  1  0.65836121  0.39250245  0.35226321  1
  H  H742  1  0.89236676  0.34030742  0.29733185  1
  H  H743  1  0.77845412  0.38778363  0.42386072  1
  H  H744  1  0.87580787  0.39079487  0.31997784  1
  O  O745  1  0.97268001  0.40024458  0.41880686  1
  H  H746  1  0.95490150  0.30365203  0.28022195  1
  C  C747  1  0.59208032  0.35614355  0.39967719  1
  H  H748  1  0.80094818  0.35560365  0.46644338  1
  C  C749  1  0.74104279  0.48011644  0.44689967  1
  C  C750  1  0.93808364  0.42603017  0.36048027  1
  C  C751  1  0.72375666  0.40917728  0.47454700  1
  H  H752  1  0.77099201  0.34790273  0.30334007  1
  O  O753  1  0.84798652  0.40841030  0.25583710  1
  C  C754  1  0.90575350  0.41993462  0.32523670  1
  C  C755  1  0.93315010  0.39495885  0.38993770  1
  C  C756  1  0.90651047  0.45058805  0.29728045  1
  C  C757  1  0.51787152  0.32167979  0.44893769  1
  O  O758  1  0.89634087  0.36225416  0.38221232  1
  C  C759  1  0.65861132  0.35932468  0.38000527  1
  O  O760  1  0.84321911  0.30061853  0.42812129  1
  H  H761  1  0.63626777  0.27537187  0.45525751  1
  O  O762  1  0.50801206  0.28773451  0.46967105  1
  C  C763  1  0.87521172  0.44460748  0.26019228  1
  C  C764  1  0.78956934  0.38934951  0.45603664  1
  H  H765  1  0.62611662  0.42239960  0.41883906  1
  C  C766  1  0.71191653  0.30615011  0.41426239  1
  C  C767  1  0.72295054  0.33465809  0.38669245  1
  H  H768  1  0.60604948  0.47702845  0.40766903  1
  C  C769  1  0.69471362  0.44912673  0.46490536  1
  H  H770  1  0.68521721  0.31915024  0.31906151  1
  C  C771  1  0.61738137  0.45300052  0.47685722  1
  C  C772  1  0.58550747  0.32560913  0.42628319  1
  C  C773  1  0.67569240  0.38748087  0.31592419  1
  H  H774  1  0.69784146  0.34231055  0.27201594  1
  C  C775  1  0.66594996  0.42760870  0.29782777  1
  C  C776  1  0.67798343  0.43043221  0.25864209  1
  H  H777  1  0.84559218  0.40631029  0.45941729  1
  H  H778  1  0.53937542  0.43567363  0.39625868  1
  C  C779  1  0.89640029  0.31584432  0.27574312  1
  H  H780  1  0.54422988  0.37928624  0.39608716  1
  Cu  Cu781  1  0.93333866  0.30940148  0.39610520  1
  C  C782  1  0.64573624  0.29867606  0.43197822  1
  O  O783  1  0.80730094  0.47513213  0.43735635  1
  C  C784  1  0.63451266  0.43281087  0.35961615  1
  C  C785  1  0.64754103  0.45553230  0.32694873  1
  C  C786  1  0.78214932  0.28370544  0.42435026  1
  C  C787  1  0.70835867  0.34629077  0.30256555  1
  C  C788  1  0.83963252  0.28095330  0.27871751  1
  C  C789  1  0.55180624  0.48194168  0.47818720  1
  C  C790  1  0.59798897  0.44229571  0.39718381  1
  O  O791  1  0.91142404  0.28959518  0.34886958  1
  N  N792  1  0.67215349  0.38998301  0.49694491  1
  C  C793  1  0.97324838  0.48398265  0.33712713  1
  C  C794  1  0.94626852  0.48954983  0.30302155  1
  C  C795  1  0.84263996  0.17752847  0.67610037  1
  O  O796  1  0.67492557  0.17087422  0.61693404  1
  H  H797  1  0.96245817  0.17770738  0.66862728  1
  C  C798  1  0.91298499  0.16391991  0.65553436  1
  Cu  Cu799  1  0.63395483  0.06614302  0.63360129  1
  C  C800  1  0.74081814  0.15998753  0.62531918  1
  O  O801  1  0.77543613  0.14043626  0.60315222  1
  C  C802  1  0.76986053  0.17659139  0.66309717  1
  O  O803  1  0.55623769  0.06338905  0.67069437  1
  Cu  Cu804  1  0.59205281  0.14784802  0.64305560  1
  O  O805  1  0.60359465  0.19639500  0.67257877  1
  C  C806  1  0.72862938  0.19212047  0.69453624  1
  O  O807  1  0.57555086  0.10229659  0.60767139  1
  H  H808  1  0.92037198  0.12864061  0.65113790  1
  N  N809  1  0.84296854  0.18902375  0.71331103  1
  C  C810  1  0.65030323  0.20234801  0.69904055  1
  H  H811  1  0.91012955  0.17519568  0.62684778  1
  H  H812  1  0.93788732  0.12689885  0.72560631  1
  O  O813  1  0.69888518  0.02561611  0.65431254  1
  H  H814  1  0.53594708  0.09664710  0.59184178  1
  C  C815  1  0.77473265  0.20024725  0.72565990  1
  O  O816  1  0.62993852  0.22004187  0.72802307  1
  O  O817  1  0.78478516  0.10160564  0.72330121  1
  O  O818  1  0.51963931  0.12882954  0.67667641  1
  C  C819  1  0.50962243  0.09130155  0.68254051  1
  C  C820  1  0.75462037  0.01198747  0.63604086  1
  O  O821  1  0.75249712  0.01272469  0.60095163  1
  H  H822  1  0.79606563  0.12976458  0.72083021  1
  O  O823  1  0.53670226  0.23961615  0.57713098  1
  H  H824  1  0.73422573  0.02492849  0.73375312  1
  H  H825  1  0.59017343  0.23203560  0.58215552  1
  H  H826  1  0.83113404  0.09082994  0.71972711  1
  C  C827  1  0.90899628  0.19146556  0.73725880  1
  C  C828  1  0.95067868  0.15444851  0.74185995  1
  H  H829  1  0.82796779  0.24254359  0.68288504  1
  H  H830  1  0.57908846  0.06296098  0.73483724  1
  H  H831  1  0.69463876  0.24673970  0.57348314  1
  O  O832  1  0.83091919  0.25415344  0.58326497  1
  H  H833  1  0.50451340  0.38561812  0.51347071  1
  H  H834  1  0.90155624  0.25956615  0.74964614  1
  H  H835  1  0.80380174  0.25537413  0.64490275  1
  C  C836  1  0.63746273  0.36710889  0.70977893  1
  C  C837  1  0.67927756  0.35245110  0.51815620  1
  H  H838  1  0.80021417  0.35496554  0.52285405  1
  C  C839  1  0.65819716  0.49778673  0.68101449  1
  H  H840  1  0.56354859  0.33935915  0.51505089  1
  H  H841  1  0.67743540  0.37409623  0.64725925  1
  H  H842  1  0.64530766  0.47907451  0.65621008  1
  H  H843  1  0.54035635  0.42223146  0.54581135  1
  C  C844  1  0.82294818  0.28404611  0.56391635  1
  H  H845  1  0.76226726  0.30105261  0.68400037  1
  O  O846  1  0.82295006  0.26762679  0.66774662  1
  H  H847  1  0.75706202  0.42210375  0.53531333  1
  H  H848  1  0.58051314  0.37273009  0.65062440  1
  Cu  Cu849  1  0.85755789  0.47394530  0.55892290  1
  C  C850  1  0.75004760  0.33694558  0.52837190  1
  H  H851  1  0.92686763  0.29482026  0.56280320  1
  C  C852  1  0.75188676  0.29931852  0.54884913  1
  O  O853  1  0.80394155  0.42255214  0.54980737  1
  C  C854  1  0.64796855  0.48100316  0.71589200  1
  C  C855  1  0.61525339  0.33118818  0.52908453  1
  H  H856  1  0.79661532  0.38964884  0.71292222  1
  H  H857  1  0.79055077  0.47292592  0.69945780  1
  C  C858  1  0.53658287  0.41365872  0.51694115  1
  H  H859  1  0.62111268  0.34733642  0.61187803  1
  C  C860  1  0.67876266  0.40583139  0.70911452  1
  O  O861  1  0.81408365  0.44973651  0.70995829  1
  O  O862  1  0.78683816  0.38875947  0.60733571  1
  C  C863  1  0.68469227  0.43219729  0.58762174  1
  O  O864  1  0.74620023  0.32942971  0.69649793  1
  Cu  Cu865  1  0.56893236  0.27022249  0.72613270  1
  C  C866  1  0.68871973  0.27678739  0.55879932  1
  O  O867  1  0.63801348  0.29612732  0.68982609  1
  O  O868  1  0.88514530  0.31014219  0.55274523  1
  C  C869  1  0.62579047  0.37500900  0.62967837  1
  C  C870  1  0.61678052  0.29389639  0.54873760  1
  N  N871  1  0.62937316  0.43574520  0.71801176  1
  C  C872  1  0.75684950  0.40961525  0.58475029  1
  C  C873  1  0.66169445  0.46995701  0.56767934  1
  C  C874  1  0.58722890  0.47497422  0.57736924  1
  C  C875  1  0.56178099  0.37595727  0.71490069  1
  C  C876  1  0.55945245  0.41990384  0.72227016  1
  C  C877  1  0.75962854  0.41598430  0.70191083  1
  H  H878  1  0.76696487  0.41854689  0.66973587  1
  C  C879  1  0.62303439  0.41663865  0.60727203  1
  N  N880  1  0.56535997  0.44262169  0.60105822  1
  C  C881  1  0.67291073  0.32754830  0.69892788  1
  C  C882  1  0.54407635  0.27500940  0.55737739  1
  C  C883  1  0.63714623  0.17285354  0.86239855  1
  Cu  Cu884  1  0.68572723  0.14936860  0.93062449  1
  O  O885  1  0.66067885  0.14127047  0.88014399  1
  C  C886  1  0.57597996  0.16274124  0.83825477  1
  Cu  Cu887  1  0.90861613  0.13811686  0.81196228  1
  Cu  Cu888  1  0.81179842  0.09928956  0.83951842  1
  O  O889  1  0.93539291  0.08971975  0.86075864  1
  O  O890  1  0.81668806  0.12659093  0.79723158  1
  H  H891  1  0.57608424  0.09574135  0.85219800  1
  C  C892  1  0.74248839  0.07249494  0.90719680  1
  Cu  Cu893  1  0.89832302  0.05413518  0.89770741  1
  O  O894  1  0.80201788  0.07730479  0.88647762  1
  O  O895  1  0.66590771  0.20831082  0.86763643  1
  C  C896  1  0.54749469  0.19412456  0.81539885  1
  C  C897  1  0.54840395  0.12086277  0.83768195  1
  H  H898  1  0.79616883  0.11775766  0.77339642  1
  C  C899  1  0.69113096  0.04104344  0.89930940  1
  O  O900  1  0.73398657  0.09654429  0.93545094  1
  O  O901  1  0.94042440  0.15649138  0.85524243  1
  C  C902  1  0.63075655  0.03194445  0.92354321  1
  C  C903  1  0.59573166  0.05259277  0.95764107  1
  O  O904  1  0.69938580  0.15774389  0.98009016  1
  H  H905  1  0.57139979  0.08420818  0.94854071  1
  C  C906  1  0.51713395  0.04687152  0.78186418  1
  H  H907  1  0.54875604  0.03203084  0.96791064  1
  H  H908  1  0.57863649  0.22472336  0.81559461  1
  H  H909  1  0.63667054  0.05761171  0.98021607  1
  C  C910  1  0.95848879  0.12318241  0.87377350  1
  O  O911  1  0.78204617  0.04472701  0.82122282  1
  C  C912  1  0.57767198  0.07320025  0.76398320  1
  H  H913  1  0.79304337  0.02890274  0.79614209  1
  C  C914  1  0.68650072  0.01129661  0.86712436  1
  C  C915  1  0.76315076  0.21273671  0.76601831  1
  C  C916  1  0.92614314  0.22821844  0.75720942  1
  H  H917  1  0.51901335  0.04668822  0.89933863  1
  H  H918  1  0.70620435  0.20175274  0.77613291  1
  O  O919  1  0.57632442  0.23091101  0.92297159  1
  O  O920  1  0.77061087  0.23824529  0.96547705  1
  H  H921  1  0.63119552  0.06518561  0.77654637  1
  C  C922  1  0.72991953  0.00721275  0.83270037  1
  H  H923  1  0.80875258  0.20389100  0.78790631  1
  C  C924  1  0.53972317  0.23328057  0.95370515  1
  Cu  Cu925  1  0.67173918  0.23959121  0.91293894  1
  H  H926  1  0.94976025  0.22051181  0.92022253  1
  Cu  Cu927  1  0.81600053  0.20471804  0.99551386  1
  H  H928  1  0.57029464  0.10696081  0.76579736  1
  C  C929  1  0.98277154  0.22556474  0.78418111  1
  O  O930  1  0.97576532  0.01090826  0.82757460  1
  H  H931  1  0.77501198  0.09642623  0.99781570  1
  O  O932  1  0.98949316  0.03089473  0.90109034  1
  O  O933  1  0.76457069  0.24886011  0.90481404  1
  H  H934  1  0.76030541  0.24806429  0.76990740  1
  C  C935  1  0.99775306  0.45098232  0.75030841  1
  H  H936  1  0.93805389  0.45935427  0.75028222  1
  N  N937  1  0.97923003  0.34615134  0.87497403  1
  O  O938  1  0.50271970  0.25215252  0.76396150  1
  H  H939  1  0.75447259  0.43072610  0.76036158  1
  H  H940  1  0.98139121  0.43128880  0.92738336  1
  O  O941  1  0.56911989  0.25000698  0.98194580  1
  C  C942  1  0.89585018  0.29498878  0.90314835  1
  C  C943  1  0.79806397  0.25280896  0.93542404  1
  H  H944  1  0.97393909  0.32230627  0.81218646  1
  C  C945  1  0.89371382  0.28370726  0.97177771  1
  O  O946  1  0.72578560  0.42497376  0.78164185  1
  C  C947  1  0.97871048  0.33420943  0.94291479  1
  H  H948  1  0.68116401  0.41808432  0.77039746  1
  H  H949  1  0.86545924  0.27075236  0.99583573  1
  C  C950  1  0.95251973  0.32548451  0.90737712  1
  H  H951  1  0.86628867  0.28933912  0.87808269  1
  C  C952  1  0.86768039  0.27597912  0.93548334  1
  O  O953  1  0.94929386  0.30141788  0.79650990  1
  H  H954  1  0.94725171  0.35936935  0.85312110  1
  H  H955  1  0.65020528  0.48642593  0.77583823  1
  C  C956  1  0.94691956  0.31550265  0.97485860  1
  C  C957  1  0.99324227  0.26485737  0.80682343  1
  C  C958  1  0.81536139  0.64240148  0.07736358  1
  C  C959  1  0.78270888  0.59698523  0.02885543  1
  C  C960  1  0.80422613  0.60113235  0.06612197  1
  C  C961  1  0.63362076  0.56048687  0.03098016  1
  N  N962  1  0.77234159  0.55160550  0.02026833  1
  C  C963  1  0.80441207  0.67902697  0.05635917  1
  H  H964  1  0.81842748  0.57335773  0.08276013  1
  C  C965  1  0.82965821  0.64857349  0.11693785  1
  O  O966  1  0.84353381  0.61736743  0.13850455  1
  O  O967  1  0.83469674  0.68500619  0.12701118  1
  Cu  Cu968  1  0.88076849  0.62607474  0.18458576  1
  O  O969  1  0.90399607  0.63979869  0.23515522  1
  H  H970  1  0.81284870  0.70982591  0.06889117  1
  Cu  Cu971  1  0.83847059  0.55176518  0.21426618  1
  Cu  Cu972  1  0.92614887  0.70251118  0.14985575  1
  O  O973  1  0.80525444  0.52145402  0.17711853  1
  C  C974  1  0.82885999  0.52281056  0.01761376  1
  C  C975  1  0.70537798  0.53560069  0.02893000  1
  Cu  Cu976  1  0.97015086  0.64812868  0.08498356  1
  H  H977  1  0.82336250  0.51964787  0.15187816  1
  C  C978  1  0.97291651  0.64228139  0.00902497  1
  C  C979  1  0.77575800  0.67347316  0.01945307  1
  H  H980  1  0.61739183  0.56806415  0.06048124  1
  H  H981  1  0.63974214  0.59097042  0.01395774  1
  O  O982  1  0.98070898  0.62239151  0.03854615  1
  O  O983  1  0.88812439  0.51700194  0.10338847  1
  H  H984  1  0.58572823  0.54309929  0.01848712  1
  O  O985  1  0.98361214  0.61298197  0.17387724  1
  H  H986  1  0.91025410  0.54313979  0.09437628  1
  H  H987  1  0.95237306  0.50751356  0.00735089  1
  H  H988  1  0.87566161  0.50129244  0.08197033  1
  C  C989  1  0.90341205  0.52946795  0.00247359  1
  C  C990  1  0.98406193  0.74604210  0.08545684  1
  O  O991  1  0.93723167  0.74828676  0.06228608  1
  C  C992  1  0.99951623  0.68191990  0.00125986  1
  C  C993  1  0.77449176  0.63090358  0.00525195  1
  C  C994  1  0.80915171  0.87699037  0.00521353  1
  O  O995  1  0.98954525  0.98787150  0.18828574  1
  C  C996  1  0.57044899  0.98101258  0.14159365  1
  O  O997  1  0.74097479  0.94277392  0.24206688  1
  Cu  Cu998  1  0.88337106  0.99161557  0.19718222  1
  O  O999  1  0.60837718  0.91286567  0.03142755  1
  H  H1000  1  0.68016864  0.98956707  0.05692282  1
  O  O1001  1  0.68719228  0.98034558  0.16669888  1
  H  H1002  1  0.76055026  0.84508033  0.10219081  1
  H  H1003  1  0.54945468  0.93517201  0.19462769  1
  O  O1004  1  0.77832885  0.86199660  0.08225108  1
  C  C1005  1  0.73526232  0.83819460  0.05158584  1
  C  C1006  1  0.75609252  0.84568694  0.01234949  1
  H  H1007  1  0.97147424  0.83099923  0.03725835  1
  O  O1008  1  0.68250494  0.82016501  0.06157255  1
  H  H1009  1  0.86219678  0.91073564  0.18748871  1
  C  C1010  1  0.54739393  0.90671514  0.02128180  1
  C  C1011  1  0.95045856  0.84140781  0.06480872  1
  H  H1012  1  0.93827235  0.85186074  0.14985138  1
  H  H1013  1  0.86809629  0.86230680  0.12877649  1
  H  H1014  1  0.94877111  0.87637407  0.06750161  1
  O  O1015  1  0.88948956  0.86268071  0.15335109  1
  H  H1016  1  0.85008021  0.96320955  0.03018034  1
  C  C1017  1  0.61893089  0.96574312  0.16996264  1
  O  O1018  1  0.60249154  0.93900202  0.19742821  1
  H  H1019  1  0.71130191  0.95475296  0.22249722  1
  O  O1020  1  0.87125767  0.93530698  0.20169475  1
  H  H1021  1  0.83451759  0.89422024  0.02953823  1
  H  H1022  1  0.71460106  0.99595382  0.11484151  1
  H  H1023  1  0.89229299  0.82976719  0.06405049  1
  O  O1024  1  0.80392106  0.97604008  0.04181674  1
  H  H1025  1  0.52961154  0.88090672  0.06700400  1
  O  O1026  1  0.81709617  0.61900037  0.42820032  1
  C  C1027  1  0.83406820  0.60668431  0.39780134  1
  Cu  Cu1028  1  0.73388834  0.54263404  0.37586616  1
  O  O1029  1  0.82212059  0.56641024  0.38921052  1
  H  H1030  1  0.87765186  0.68363727  0.39739610  1
  H  H1031  1  0.83973984  0.57951606  0.32637724  1
  C  C1032  1  0.88223038  0.67226006  0.36949672  1
  C  C1033  1  0.86026304  0.61227395  0.32936384  1
  C  C1034  1  0.85836700  0.63150146  0.36464313  1
  C  C1035  1  0.90977165  0.69683217  0.34025877  1
  O  O1036  1  0.64945769  0.52156352  0.29697358  1
  O  O1037  1  0.64594278  0.52094176  0.35795444  1
  O  O1038  1  0.70984639  0.51491415  0.43967109  1
  C  C1039  1  0.88761157  0.63566130  0.29983938  1
  C  C1040  1  0.92005288  0.67534063  0.30778840  1
  H  H1041  1  0.93964019  0.69301102  0.28359083  1
  Cu  Cu1042  1  0.84837468  0.52162188  0.41358614  1
  Cu  Cu1043  1  0.67504867  0.54240973  0.48090902  1
  C  C1044  1  0.87936661  0.61944634  0.26195705  1
  H  H1045  1  0.95953464  0.51652359  0.28196043  1
  C  C1046  1  0.95305327  0.54658634  0.48768145  1
  O  O1047  1  0.94639229  0.51371141  0.46318261  1
  H  H1048  1  0.77814286  0.59780012  0.46751373  1
  O  O1049  1  0.75546221  0.57690736  0.48502528  1
  O  O1050  1  0.53977308  0.51373995  0.46365090  1
  O  O1051  1  0.51757219  0.53828775  0.26189842  1
  N  N1052  1  0.93033365  0.74109462  0.34847001  1
  C  C1053  1  0.64678368  0.50207525  0.32782544  1
  H  H1054  1  0.84445025  0.73929561  0.29421001  1
  H  H1055  1  0.93520123  0.74131351  0.27037612  1
  H  H1056  1  0.95886517  0.74754273  0.37247902  1
  Cu  Cu1057  1  0.59012879  0.50075816  0.25508463  1
  O  O1058  1  0.89647226  0.56201649  0.49961306  1
  O  O1059  1  0.84877634  0.58414797  0.25642073  1
  H  H1060  1  0.84036235  0.91010236  0.34649156  1
  H  H1061  1  0.79632015  0.94489803  0.44404149  1
  O  O1062  1  0.86164612  0.95328195  0.30265013  1
  C  C1063  1  0.89342808  0.75868956  0.28725228  1
  H  H1064  1  0.80294681  0.82075659  0.34515041  1
  O  O1065  1  0.80042027  0.80102913  0.36523959  1
  H  H1066  1  0.81458444  0.77646477  0.35234050  1
  C  C1067  1  0.84849049  0.93891197  0.45968610  1
  H  H1068  1  0.70485463  0.92128352  0.25046732  1
  C  C1069  1  0.98357799  0.93635565  0.46458758  1
  C  C1070  1  0.88519014  0.85706732  0.28551774  1
  C  C1071  1  0.96455141  0.81040879  0.33120135  1
  O  O1072  1  0.71821546  0.92704553  0.49861050  1
  C  C1073  1  0.95786212  0.84024345  0.29929766  1
  C  C1074  1  0.85110145  0.92559854  0.49671672  1
  C  C1075  1  0.92103562  0.94832329  0.44478605  1
  C  C1076  1  0.91969559  0.98989390  0.35293913  1
  H  H1077  1  0.80161997  0.91925173  0.39313799  1
  O  O1078  1  0.82695345  0.84829693  0.29960389  1
  C  C1079  1  0.89969994  0.98459424  0.31422658  1
  C  C1080  1  0.89811258  0.95821729  0.37980366  1
  N  N1081  1  0.92284321  0.97328345  0.41136247  1
  H  H1082  1  0.87652321  0.78482831  0.27094896  1
  C  C1083  1  0.93088538  0.77185061  0.32309048  1
  H  H1084  1  0.88531922  0.88984242  0.39038608  1
  C  C1085  1  0.85376635  0.91755400  0.37660212  1
  Cu  Cu1086  1  0.86527666  0.94053388  0.25313817  1
  O  O1087  1  0.88838871  0.88243097  0.25614067  1
  O  O1088  1  0.67796563  0.60191165  0.63959001  1
  C  C1089  1  0.68152352  0.56481488  0.64297285  1
  H  H1090  1  0.92165072  0.59415167  0.64452884  1
  C  C1091  1  0.91833207  0.67522990  0.71376278  1
  C  C1092  1  0.67500087  0.56477821  0.71188767  1
  H  H1093  1  0.68191125  0.59871213  0.70602453  1
  O  O1094  1  0.67057039  0.53243701  0.53251276  1
  C  C1095  1  0.95664966  0.63630716  0.70693070  1
  O  O1096  1  0.87441231  0.54739549  0.61217264  1
  C  C1097  1  0.66998032  0.54147899  0.67925888  1
  O  O1098  1  0.69484660  0.54081852  0.61507508  1
  Cu  Cu1099  1  0.78097760  0.54202095  0.59193382  1
  C  C1100  1  0.93676587  0.53463804  0.60005529  1
  C  C1101  1  0.95500942  0.70843399  0.69441602  1
  C  C1102  1  0.98141439  0.58881289  0.63916198  1
  Cu  Cu1103  1  0.81241570  0.53659850  0.51310356  1
  C  C1104  1  0.95554344  0.59293914  0.72582101  1
  C  C1105  1  0.98622113  0.61616875  0.54935793  1
  H  H1106  1  0.55487168  0.54155523  0.57478271  1
  H  H1107  1  0.97724803  0.56829242  0.70722640  1
  H  H1108  1  0.94076555  0.59482099  0.55956836  1
  H  H1109  1  0.51728019  0.51108023  0.53469475  1
  H  H1110  1  0.96073352  0.64116255  0.53205194  1
  O  O1111  1  0.80647995  0.70713056  0.73332084  1
  O  O1112  1  0.77308532  0.50802020  0.55161128  1
  C  C1113  1  0.84924378  0.67509726  0.73415429  1
  C  C1114  1  0.70456372  0.50370884  0.54867341  1
  O  O1115  1  0.93878313  0.50547473  0.57722918  1
  H  H1116  1  0.90030387  0.58549289  0.73499895  1
  C  C1117  1  0.53527553  0.51022742  0.56600470  1
  C  C1118  1  0.65452637  0.50283398  0.74997770  1
  C  C1119  1  0.66869481  0.54524302  0.74643562  1
  O  O1120  1  0.51064357  0.61132618  0.72888438  1
  C  C1121  1  0.97799403  0.92493799  0.50256092  1
  C  C1122  1  0.93760600  0.75541130  0.68944969  1
  C  C1123  1  0.97169670  0.91944414  0.68046334  1
  C  C1124  1  0.91165685  0.92196546  0.52078609  1
  O  O1125  1  0.87550859  0.77304478  0.70091950  1
  H  H1126  1  0.90704963  0.91382113  0.54957997  1
  Cu  Cu1127  1  0.76449457  0.96292414  0.57720658  1
  N  N1128  1  0.85967524  0.95594529  0.70491955  1
  H  H1129  1  0.98260017  0.90954405  0.70930765  1
  H  H1130  1  0.69422800  0.97655626  0.71622804  1
  C  C1131  1  0.80806454  0.98884757  0.65728535  1
  C  C1132  1  0.87077391  0.96777602  0.64385959  1
  O  O1133  1  0.98500670  0.77760389  0.67450213  1
  O  O1134  1  0.96312918  0.94122851  0.60449001  1
  H  H1135  1  0.96699292  0.89187197  0.66356836  1
  C  C1136  1  0.77593754  0.92081217  0.51391453  1
  C  C1137  1  0.80416753  0.98333688  0.69665518  1
  O  O1138  1  0.77723662  0.91370625  0.54983719  1
  C  C1139  1  0.90302711  0.94642620  0.67500835  1
  C  C1140  1  0.87190078  0.94000653  0.74232781  1
  O  O1141  1  0.86786323  0.97095528  0.57829763  1
  H  H1142  1  0.83029737  0.87777477  0.72771822  1
  C  C1143  1  0.90229944  0.95944542  0.60671041  1
  Cu  Cu1144  1  0.83132475  0.76362036  0.74741881  1
  O  O1145  1  0.52087225  0.94180485  0.59029364  1
  H  H1146  1  0.50085894  0.94527192  0.69677322  1
  C  C1147  1  0.74467757  0.99175408  0.72564804  1
  C  C1148  1  0.86079054  0.89749511  0.74888288  1
  O  O1149  1  0.58857769  0.97590614  0.74631010  1
  C  C1150  1  0.88409682  0.57300698  0.84893028  1
  C  C1151  1  0.67946059  0.57196127  0.77999287  1
  O  O1152  1  0.69568261  0.61006446  0.77324015  1
  O  O1153  1  0.68233559  0.55459227  0.81053700  1
  O  O1154  1  0.82851887  0.58025510  0.82867257  1
  Cu  Cu1155  1  0.73580530  0.58202720  0.84897814  1
  C  C1156  1  0.91746071  0.67237602  0.81913243  1
  O  O1157  1  0.64943623  0.58514598  0.87692742  1
  C  C1158  1  0.64053864  0.60618780  0.90762211  1
  O  O1159  1  0.88045319  0.53615308  0.86701546  1
  H  H1160  1  0.92731399  0.53670190  0.88123250  1
  O  O1161  1  0.84969870  0.66651535  0.82477680  1
  Cu  Cu1162  1  0.77409874  0.63782529  0.79722123  1
  C  C1163  1  0.57403022  0.58961578  0.92993304  1
  O  O1164  1  0.67866259  0.63504018  0.91618084  1
  C  C1165  1  0.95116782  0.59965195  0.84630797  1
  C  C1166  1  0.96793820  0.64048298  0.83168148  1
  H  H1167  1  0.54829835  0.54300249  0.88693809  1
  O  O1168  1  0.94497237  0.70680753  0.80739301  1
  O  O1169  1  0.90790967  0.65313513  0.92997712  1
  H  H1170  1  0.59151495  0.62970949  0.97622161  1
  C  C1171  1  0.55546542  0.60713668  0.96370485  1
  C  C1172  1  0.53368413  0.55760012  0.91307765  1
  H  H1173  1  0.94348950  0.70297960  0.90934409  1
  C  C1174  1  0.94264501  0.68371354  0.93619795  1
  C  C1175  1  0.98680485  0.70174385  0.96819610  1
  O  O1176  1  0.73311684  0.73603597  0.97667422  1
  H  H1177  1  0.75742522  0.62676947  0.97658642  1
  O  O1178  1  0.83228746  0.64250535  0.75234704  1
  O  O1179  1  0.93090068  0.55516255  0.98288017  1
  H  H1180  1  0.99164540  0.59042496  0.75045162  1
  H  H1181  1  0.53762811  0.60856919  0.75174841  1
  C  C1182  1  0.75191446  0.70935926  0.99738641  1
  H  H1183  1  0.93340200  0.62401125  0.98971490  1
  O  O1184  1  0.71107189  0.74322395  0.87372361  1
  H  H1185  1  0.86741086  0.74491447  0.95205248  1
  H  H1186  1  0.76339628  0.97386578  0.75307970  1
  C  C1187  1  0.99865888  0.81509296  0.88113791  1
  N  N1188  1  0.99366628  0.81419861  0.94864078  1
  H  H1189  1  0.50622643  0.83336762  0.78060651  1
  C  C1190  1  0.91525319  0.90245217  0.81095932  1
  C  C1191  1  0.88467638  0.87970069  0.78297293  1
  O  O1192  1  0.72402423  0.75850489  0.81371714  1
  C  C1193  1  0.52328285  0.82993958  0.88392616  1
  C  C1194  1  0.59634476  0.80835570  0.81226277  1
  O  O1195  1  0.51254269  0.84971724  0.92358336  1
  C  C1196  1  0.69573816  0.76815461  0.84168611  1
  H  H1197  1  0.57905594  0.80559769  0.75376125  1
  C  C1198  1  0.56003365  0.81684020  0.78104862  1
  O  O1199  1  0.96615096  0.95525479  0.86304344  1
  C  C1200  1  0.92498927  0.94583881  0.80300493  1
  H  H1201  1  0.96370001  0.78693219  0.87697112  1
  N  N1202  1  0.60169929  0.99622678  0.91088401  1
  C  C1203  1  0.63124590  0.80127371  0.84403997  1
  H  H1204  1  0.60467589  0.87736206  0.95109385  1
  C  C1205  1  0.64025975  0.82758357  0.91172499  1
  C  C1206  1  0.51882705  0.92589146  0.98497248  1
  H  H1207  1  0.67763388  0.75935347  0.89172020  1
  C  C1208  1  0.79413175  0.86751042  0.93810737  1
  C  C1209  1  0.60994351  0.94214414  0.85779599  1
  C  C1210  1  0.57064140  0.95057503  0.96632014  1
  C  C1211  1  0.72563963  0.82329814  0.98246199  1
  C  C1212  1  0.88925047  0.91663320  0.96220084  1
  O  O1213  1  0.86679212  0.75584284  0.89450317  1
  C  C1214  1  0.86930130  0.83531517  0.78767479  1
  H  H1215  1  0.91772933  0.99882790  0.76733048  1
  C  C1216  1  0.74428662  0.83488918  0.94499435  1
  H  H1217  1  0.80518763  0.87834683  0.90963313  1
  C  C1218  1  0.97512467  0.77469281  0.94418896  1
  C  C1219  1  0.89444210  0.76839598  0.93296659  1
  N  N1220  1  0.71052744  0.81979674  0.91553042  1
  H  H1221  1  0.86262249  0.79902755  0.93404164  1
  O  O1222  1  0.87921136  0.81381991  0.81646939  1
  C  C1223  1  0.82691518  0.88645263  0.96897996  1
  C  C1224  1  0.62732075  0.98458386  0.87703616  1
  H  H1225  1  0.66173733  0.92129647  0.85941890  1
  H  H1226  1  0.57204981  0.82663711  0.96240468  1
  H  H1227  1  0.77361650  0.88091932  0.83659539  1
  Cu  Cu1228  1  0.94891126  0.97872359  0.91207962  1
  C  C1229  1  0.90742610  0.96527715  0.76978967  1
  O  O1230  1  0.92548240  0.93004074  0.98856117  1
  C  C1231  1  0.59946964  0.81843633  0.87883572  1
  H  H1232  1  0.56298783  0.92853979  0.87367439  1
  Cu  Cu1233  1  0.91294360  0.75902203  0.81110888  1
  C  C1234  1  0.54718932  0.96977314  0.93268997  1
  O  O1235  1  0.72365023  0.98034164  0.81012312  1
  O  O1236  1  0.83704147  0.82021916  0.75890987  1
  O  O1237  1  0.73804041  0.87879085  0.85507255  1
  H  H1238  1  0.73613238  0.84962738  0.86179654  1
  H  H1239  1  0.62857349  0.94979694  0.97489095  1
  C  C1240  1  0.95803676  0.97302061  0.83300619  1
  H  H1241  1  0.68305718  0.80046863  0.98748825  1
  H  H1242  1  0.93510055  0.89091981  0.83687547  1
  C  C1243  1  0.58231851  0.84847709  0.93847061  1
  H  H1244  1  0.59402338  0.94679442  0.82920741  1
  O  O1245  1  0.90414996  0.92902205  0.92836569  1
  C  C1246  1  0.53166207  0.96898996  0.76139473  1
  H  H1247  1  0.81535226  0.76206339  0.89972768  1
