# generated using pymatgen
data_CuH40C34(N2O)4
_symmetry_space_group_name_H-M   'P 1'
_cell_length_a   21.65649170
_cell_length_b   35.60554636
_cell_length_c   11.20177685
_cell_angle_alpha   90.00000000
_cell_angle_beta   90.00000000
_cell_angle_gamma   90.00000000
_symmetry_Int_Tables_number   1
_chemical_formula_structural   CuH40C34(N2O)4
_chemical_formula_sum   'Cu12 H480 C408 N96 O48'
_cell_volume   8637.59176886
_cell_formula_units_Z   12
loop_
 _symmetry_equiv_pos_site_id
 _symmetry_equiv_pos_as_xyz
  1  'x, y, z'
loop_
 _atom_site_type_symbol
 _atom_site_label
 _atom_site_symmetry_multiplicity
 _atom_site_fract_x
 _atom_site_fract_y
 _atom_site_fract_z
 _atom_site_occupancy
  C  C0  1  0.10379517  0.20107011  0.21986850  1
  H  H1  1  0.08943933  0.18093025  0.15041382  1
  N  N2  1  0.16413621  0.20822125  0.21118784  1
  C  C3  1  0.14160869  0.04516463  0.14422430  1
  C  C4  1  0.06121526  0.21508026  0.30456306  1
  C  C5  1  0.18613641  0.22492062  0.30865221  1
  C  C6  1  0.07391602  0.03699627  0.17635767  1
  H  H7  1  0.12885744  0.08456156  0.38758263  1
  C  C8  1  0.09957934  0.10620768  0.43555380  1
  H  H9  1  0.06049425  0.11499140  0.26222068  1
  C  C10  1  0.04243900  0.11175585  0.36022069  1
  C  C11  1  0.07032611  0.02218618  0.29478938  1
  H  H12  1  0.14385676  0.15387152  0.34988596  1
  H  H13  1  0.19781070  0.15658785  0.15514734  1
  H  H14  1  0.11499709  0.01742238  0.33638340  1
  H  H15  1  0.04275612  0.06103047  0.16696708  1
  C  C16  1  0.20216514  0.12683185  0.12538629  1
  H  H17  1  0.15524939  0.11399697  0.14426758  1
  H  H18  1  0.16202513  0.06361632  0.21680654  1
  H  H19  1  0.03231276  0.17059314  0.44395266  1
  C  C20  1  0.13525466  0.14367300  0.43799407  1
  H  H21  1  0.18171852  0.13981441  0.48189967  1
  H  H22  1  0.14823407  0.06092676  0.06110775  1
  H  H23  1  0.16806627  0.01912724  0.13658285  1
  C  C24  1  0.00696783  0.14992037  0.38773622  1
  C  C25  1  0.02246280  0.01127265  0.36273721  1
  C  C26  1  0.05452064  0.00677026  0.08120020  1
  H  H27  1  0.05740501  0.24625574  0.47639019  1
  H  H28  1  0.03190902  0.00127040  0.45424989  1
  H  H29  1  0.24031192  0.11386949  0.18654392  1
  H  H30  1  0.01028418  0.08733978  0.36761230  1
  H  H31  1  0.24858211  0.16734927  0.31002208  1
  H  H32  1  0.23696354  0.22696571  0.30084747  1
  H  H33  1  0.10840427  0.16654155  0.48552166  1
  C  C34  1  0.15170066  0.24080508  0.40528156  1
  C  C35  1  0.08781892  0.23537990  0.40342722  1
  H  H36  1  0.10329223  0.24513369  0.03426590  1
  H  H37  1  0.09905075  0.09825040  0.00164158  1
  N  N38  1  0.01036680  0.10105936  0.01162660  1
  H  H39  1  0.23881401  0.03249648  0.00771066  1
  C  C40  1  0.06908862  0.32432141  0.47768414  1
  O  O41  1  0.13517594  0.43215280  0.05660374  1
  C  C42  1  0.05427337  0.33369678  0.23727192  1
  C  C43  1  0.04175355  0.47970117  0.24267694  1
  H  H44  1  0.05953813  0.48281745  0.15750804  1
  C  C45  1  0.00421687  0.46457335  0.46975542  1
  C  C46  1  0.21035110  0.44809835  0.26336579  1
  H  H47  1  0.01787830  0.40670503  0.39073254  1
  Cu  Cu48  1  0.05964912  0.41277242  0.10928648  1
  C  C49  1  0.01960300  0.43782879  0.37844775  1
  H  H50  1  0.16870849  0.31987898  0.44649820  1
  Cu  Cu51  1  0.16287247  0.33496190  0.02544523  1
  C  C52  1  0.20980708  0.39680726  0.39783662  1
  C  C53  1  0.15808090  0.46288239  0.07942594  1
  H  H54  1  0.04032875  0.33898985  0.14568162  1
  N  N55  1  0.17649434  0.47435423  0.19130746  1
  C  C56  1  0.12268700  0.32556146  0.40897306  1
  H  H57  1  0.22498408  0.29867335  0.32826634  1
  C  C58  1  0.17524600  0.42058289  0.32416688  1
  N  N59  1  0.00505002  0.33989711  0.30447291  1
  N  N60  1  0.03497512  0.44251318  0.26784376  1
  O  O61  1  0.00862923  0.38335017  0.02475377  1
  H  H62  1  0.12534726  0.41736844  0.31715412  1
  C  C63  1  0.01336174  0.33444199  0.42055450  1
  N  N64  1  0.16252695  0.32471888  0.19525095  1
  Cu  Cu65  1  0.19567904  0.27679361  0.14368825  1
  C  C66  1  0.11568500  0.33190047  0.28254697  1
  Cu  Cu67  1  0.19246026  0.40030248  0.12481207  1
  H  H68  1  0.20261033  0.33533685  0.23854427  1
  H  H69  1  0.18566003  0.37671808  0.46207480  1
  H  H70  1  0.17483224  0.25797475  0.47697216  1
  H  H71  1  0.17589123  0.15995478  0.70393380  1
  C  C72  1  0.11149264  0.05121357  0.78152518  1
  C  C73  1  0.16296665  0.10892690  0.80623209  1
  H  H74  1  0.11344433  0.10954935  0.77270555  1
  N  N75  1  0.15936930  0.06833587  0.83778596  1
  C  C76  1  0.05742531  0.06248916  0.85312159  1
  C  C77  1  0.05986382  0.08781655  0.95370567  1
  N  N78  1  0.21709039  0.14855977  0.67518886  1
  C  C79  1  0.17310775  0.13866143  0.91122576  1
  H  H80  1  0.17881514  0.16942970  0.88097627  1
  H  H81  1  0.04248823  0.17411558  0.92579776  1
  H  H82  1  0.20585929  0.05971562  0.82211118  1
  O  O83  1  0.11270173  0.02867063  0.69819708  1
  H  H84  1  0.20103931  0.21477778  0.58435227  1
  H  H85  1  0.05928438  0.11545664  0.60456639  1
  C  C86  1  0.22117445  0.11408170  0.72012977  1
  C  C87  1  0.22981399  0.23594832  0.84246693  1
  H  H88  1  0.12174921  0.08335851  0.61718975  1
  C  C89  1  0.02997406  0.17950373  0.82906449  1
  O  O90  1  0.22335598  0.00736754  0.77579464  1
  C  C91  1  0.08093727  0.09188496  0.55644862  1
  H  H92  1  0.04790939  0.06742297  0.54845346  1
  C  C93  1  0.18585762  0.22775614  0.93350896  1
  N  N94  1  0.02328718  0.22441260  0.66213486  1
  C  C95  1  0.04347108  0.21387698  0.77132278  1
  H  H96  1  0.06269923  0.24145386  0.79821753  1
  H  H97  1  0.22550735  0.09307127  0.97649744  1
  Cu  Cu98  1  0.18692160  0.00076898  0.63215129  1
  H  H99  1  0.12978883  0.13838275  0.96561382  1
  C  C100  1  0.22158459  0.12335484  0.99477924  1
  H  H101  1  0.05033496  0.01836672  0.99314061  1
  C  C102  1  0.00228164  0.15212345  0.75843640  1
  H  H103  1  0.19182790  0.20095802  0.98608860  1
  H  H104  1  0.04650892  0.47777127  0.92460853  1
  C  C105  1  0.00417578  0.34913089  0.82751871  1
  C  C106  1  0.23444113  0.39549466  0.72692414  1
  C  C107  1  0.24014288  0.42637797  0.64846008  1
  H  H108  1  0.21608569  0.42641122  0.56256628  1
  C  C109  1  0.13663778  0.25116303  0.96008686  1
  H  H110  1  0.06920088  0.31862535  0.57383524  1
  N  N111  1  0.07597674  0.30358410  0.88127065  1
  C  C112  1  0.16383170  0.49580513  0.98871205  1
  C  C113  1  0.07475077  0.33808756  0.83812428  1
  C  C114  1  0.13057629  0.28069198  0.87727750  1
  C  C115  1  0.17425242  0.48483786  0.85151208  1
  N  N116  1  0.22446266  0.26551861  0.77154485  1
  H  H117  1  0.18994526  0.45584923  0.86402273  1
  H  H118  1  0.21243938  0.36946595  0.69830050  1
  H  H119  1  0.01757695  0.48536929  0.77210909  1
  H  H120  1  0.03235957  0.29588222  0.89384076  1
  H  H121  1  0.09089639  0.48528085  0.59164457  1
  C  C122  1  0.11623003  0.49165313  0.78073934  1
  O  O123  1  0.11925050  0.35998162  0.81609982  1
  H  H124  1  0.17722386  0.30725972  0.71527394  1
  C  C125  1  0.05857767  0.47332070  0.82726638  1
  H  H126  1  0.12864639  0.44438241  0.64177215  1
  H  H127  1  0.17399961  0.48607838  0.62585398  1
  C  C128  1  0.12577985  0.47594015  0.65508058  1
  H  H129  1  0.05752999  0.44260281  0.79944988  1
  H  H130  1  0.00705575  0.30440606  0.69848478  1
  C  C131  1  0.17408233  0.28415549  0.78093260  1
  Cu  Cu132  1  0.13093869  0.39776799  0.93571979  1
  C  C133  1  0.14131151  0.69844207  0.42236227  1
  C  C134  1  0.04398878  0.68935800  0.16626010  1
  H  H135  1  0.11004274  0.64940747  0.20772075  1
  H  H136  1  0.17669406  0.69246685  0.35439572  1
  C  C137  1  0.08937408  0.71942933  0.36098198  1
  H  H138  1  0.14389353  0.70567867  0.18668473  1
  H  H139  1  0.04506797  0.70907923  0.39817049  1
  C  C140  1  0.09667400  0.71439748  0.21738903  1
  N  N141  1  0.06883881  0.65336931  0.17481179  1
  N  N142  1  0.19491734  0.60217844  0.20724893  1
  H  H143  1  0.10156039  0.57974911  0.18706595  1
  C  C144  1  0.05901795  0.58614122  0.13902237  1
  C  C145  1  0.03631929  0.62323222  0.12754320  1
  C  C146  1  0.03014603  0.50949147  0.32350175  1
  H  H147  1  0.04456751  0.53853717  0.30462631  1
  N  N148  1  0.03211143  0.55509921  0.10575204  1
  H  H149  1  0.22838224  0.60349966  0.36244111  1
  C  C150  1  0.22567209  0.62305442  0.28291609  1
  C  C151  1  0.19314566  0.61569126  0.09581262  1
  H  H152  1  0.19604992  0.50011974  0.16381295  1
  H  H153  1  0.17686104  0.50802275  0.37251272  1
  H  H154  1  0.00842760  0.59081004  0.34315767  1
  C  C155  1  0.22211016  0.64948170  0.05516299  1
  H  H156  1  0.08554754  0.74966692  0.38832492  1
  C  C157  1  0.20988849  0.52384637  0.43293868  1
  C  C158  1  0.01343010  0.50301219  0.44230499  1
  H  H159  1  0.16636366  0.59328265  0.04729924  1
  H  H160  1  0.10237865  0.64190284  0.40385948  1
  C  C161  1  0.24886039  0.67194827  0.14191723  1
  H  H162  1  0.19279273  0.74818908  0.49757481  1
  C  C163  1  0.12495734  0.66060348  0.47585492  1
  N  N164  1  0.20572311  0.52842844  0.00480475  1
  H  H165  1  0.01110470  0.99352751  0.10333051  1
  N  N166  1  0.08670512  0.75300325  0.16542692  1
  C  C167  1  0.24067540  0.84805942  0.05481852  1
  C  C168  1  0.21121139  0.82164337  0.44582119  1
  C  C169  1  0.00603341  0.78380894  0.41369649  1
  H  H170  1  0.03943056  0.75232865  0.16217752  1
  C  C171  1  0.11848897  0.75693855  0.05921254  1
  C  C172  1  0.18451643  0.75839696  0.09151553  1
  C  C173  1  0.20779818  0.75691197  0.21171124  1
  H  H174  1  0.17671982  0.75339232  0.28795677  1
  N  N175  1  0.12661173  0.93139355  0.18010280  1
  C  C176  1  0.23003794  0.76110648  0.00158020  1
  H  H177  1  0.23368444  0.81918188  0.35795382  1
  C  C178  1  0.20157762  0.97597009  0.27110365  1
  C  C179  1  0.16656611  0.92863993  0.09093686  1
  H  H180  1  0.20990853  0.82357868  0.07182943  1
  C  C181  1  0.24412104  0.89219946  0.46728165  1
  H  H182  1  0.08722407  0.98464984  0.07913121  1
  H  H183  1  0.13244972  0.85711960  0.30992806  1
  H  H184  1  0.03470821  0.83605253  0.34275244  1
  H  H185  1  0.17156997  0.80059035  0.45308302  1
  H  H186  1  0.15147673  0.90290382  0.36227145  1
  C  C187  1  0.01400790  0.90206771  0.21732643  1
  C  C188  1  0.19438868  0.86291545  0.47091253  1
  N  N189  1  0.03940758  0.81722546  0.40976897  1
  H  H190  1  0.10966520  0.81933926  0.11680827  1
  H  H191  1  0.03653431  0.88700692  0.42254133  1
  C  C192  1  0.02663130  0.83562216  0.11076908  1
  C  C193  1  0.22169902  0.94990086  0.07973444  1
  C  C194  1  0.14001655  0.87398095  0.39285345  1
  H  H195  1  0.05018860  0.92325673  0.05627919  1
  C  C196  1  0.07818296  0.87410859  0.46957862  1
  H  H197  1  0.06376657  0.90681699  0.22805442  1
  C  C198  1  0.23896289  0.97556902  0.16766547  1
  H  H199  1  0.14389244  0.90993374  0.02750708  1
  N  N200  1  0.07989945  0.83979570  0.14736846  1
  C  C201  1  0.20855073  0.99595634  0.38518356  1
  C  C202  1  0.14572304  0.95428797  0.26580863  1
  H  H203  1  0.10918463  0.95092731  0.33104158  1
  O  O204  1  0.17151476  0.98850822  0.47404167  1
  N  N205  1  0.13828018  0.60583335  0.82081193  1
  H  H206  1  0.06675089  0.60393593  0.94234411  1
  C  C207  1  0.09934646  0.62418159  0.89472933  1
  C  C208  1  0.09921486  0.66383854  0.90409234  1
  C  C209  1  0.14552705  0.68546547  0.85405470  1
  C  C210  1  0.18026264  0.62632319  0.76267713  1
  C  C211  1  0.18899170  0.66589685  0.78189956  1
  H  H212  1  0.14928246  0.71509963  0.87126798  1
  H  H213  1  0.20643064  0.60702681  0.70399691  1
  N  N214  1  0.22139419  0.55379343  0.63187079  1
  H  H215  1  0.14057070  0.54724088  0.56520046  1
  C  C216  1  0.18884449  0.54379948  0.53298671  1
  H  H217  1  0.10816001  0.52245085  0.76499982  1
  H  H218  1  0.20835188  0.55116735  0.95093108  1
  H  H219  1  0.09066627  0.66345873  0.55104814  1
  H  H220  1  0.06451935  0.67937345  0.95096653  1
  H  H221  1  0.16622783  0.64514200  0.50976611  1
  C  C222  1  0.24216866  0.68959181  0.74566216  1
  H  H223  1  0.21192489  0.50080360  0.81039885  1
  H  H224  1  0.22288473  0.65667712  0.95641762  1
  O  O225  1  0.24241551  0.72249487  0.76985761  1
  H  H226  1  0.12678665  0.51499538  0.99916177  1
  H  H227  1  0.19762112  0.70333415  0.57863434  1
  H  H228  1  0.24481475  0.59823626  0.92039741  1
  H  H229  1  0.00600260  0.52695163  0.50502785  1
  O  O230  1  0.05671443  0.56171113  0.60612056  1
  H  H231  1  0.12897959  0.73059446  0.58732310  1
  C  C232  1  0.02684537  0.58684171  0.56768552  1
  C  C233  1  0.16646032  0.72184614  0.52466589  1
  H  H234  1  0.11320630  0.89433787  0.82794709  1
  H  H235  1  0.09600097  0.88626890  0.63976759  1
  H  H236  1  0.21667700  0.76350014  0.90622854  1
  C  C237  1  0.03488765  0.92362862  0.72644979  1
  N  N238  1  0.08907275  0.90130131  0.56474981  1
  C  C239  1  0.16332229  0.89530734  0.80859098  1
  C  C240  1  0.01433933  0.88895967  0.89967063  1
  C  C241  1  0.05238782  0.95331855  0.80035590  1
  H  H242  1  0.06772976  0.98072117  0.76880221  1
  C  C243  1  0.06231846  0.83184452  0.51218300  1
  H  H244  1  0.02792550  0.76051871  0.59304799  1
  N  N245  1  0.06057134  0.95137372  0.91484754  1
  O  O246  1  0.09838131  0.75737259  0.95563159  1
  O  O247  1  0.07269376  0.82121452  0.61288041  1
  H  H248  1  0.16465859  0.95537578  0.82140942  1
  C  C249  1  0.01380741  0.88872812  0.77466363  1
  C  C250  1  0.03655968  0.92480357  0.58409506  1
  C  C251  1  0.19139501  0.92937808  0.80363914  1
  H  H252  1  0.17731301  0.86247520  0.56323137  1
  H  H253  1  0.22063184  0.91633978  0.51137641  1
  C  C254  1  0.04262369  0.91923472  0.96367153  1
  C  C255  1  0.00376708  0.75678143  0.51044701  1
  C  C256  1  0.20036849  0.86127291  0.79227502  1
  H  H257  1  0.18415793  0.83146896  0.79148316  1
  Cu  Cu258  1  0.02849741  0.78358717  0.91209133  1
  O  O259  1  0.00630112  0.94538561  0.52590498  1
  H  H260  1  0.22266498  0.87060139  0.99039489  1
  H  H261  1  0.24745294  0.81231909  0.51338971  1
  C  C262  1  0.40917971  0.14730735  0.32689283  1
  C  C263  1  0.35202201  0.16498645  0.26464883  1
  H  H264  1  0.34674882  0.15263704  0.17279871  1
  C  C265  1  0.35902686  0.20912352  0.26400365  1
  H  H266  1  0.43327962  0.06161117  0.17810319  1
  C  C267  1  0.29332592  0.15488834  0.34682006  1
  C  C268  1  0.28870977  0.11249421  0.36376685  1
  H  H269  1  0.41646246  0.16187341  0.41399308  1
  H  H270  1  0.37977038  0.21901470  0.35145364  1
  H  H271  1  0.38999590  0.21976455  0.19534667  1
  H  H272  1  0.29903528  0.16926973  0.43467937  1
  H  H273  1  0.45590759  0.15315712  0.27562690  1
  H  H274  1  0.31360351  0.22434516  0.24565596  1
  H  H275  1  0.29857155  0.08853138  0.30113309  1
  O  O276  1  0.32186271  0.04547748  0.17993961  1
  C  C277  1  0.43155611  0.07418153  0.09106858  1
  C  C278  1  0.32386022  0.05186846  0.07472974  1
  N  N279  1  0.27267529  0.09874998  0.46151683  1
  H  H280  1  0.40726438  0.11678780  0.34337232  1
  H  H281  1  0.46790255  0.05813914  0.46066426  1
  C  C282  1  0.49046738  0.19040031  0.05621434  1
  H  H283  1  0.48380458  0.21737105  0.28748167  1
  C  C284  1  0.49551936  0.08500339  0.44820347  1
  C  C285  1  0.48222627  0.09150509  0.03301132  1
  C  C286  1  0.37783086  0.07159979  0.01992470  1
  N  N287  1  0.25537365  0.01804013  0.38840007  1
  H  H288  1  0.47637624  0.19503614  0.49864560  1
  H  H289  1  0.31650500  0.13573239  0.04224455  1
  H  H290  1  0.46750057  0.00110790  0.05248049  1
  C  C291  1  0.49619165  0.22353737  0.48103555  1
  H  H292  1  0.28296631  0.02771200  0.31801346  1
  H  H293  1  0.27110782  0.17688246  0.00141527  1
  C  C294  1  0.39948959  0.00813165  0.49794120  1
  H  H295  1  0.41368473  0.15192971  0.00891440  1
  C  C296  1  0.43465727  0.18045608  0.00226640  1
  N  N297  1  0.26043150  0.31200385  0.48115369  1
  C  C298  1  0.44668846  0.37111891  0.32828571  1
  O  O299  1  0.25582661  0.38113843  0.04229828  1
  C  C300  1  0.49348197  0.47191122  0.39288059  1
  C  C301  1  0.36630389  0.37668043  0.17721362  1
  N  N302  1  0.45282641  0.47188686  0.30330639  1
  C  C303  1  0.46668880  0.45964373  0.18594520  1
  H  H304  1  0.49182887  0.35789715  0.35247377  1
  H  H305  1  0.37428031  0.46991635  0.10899587  1
  H  H306  1  0.44673930  0.37534404  0.01986017  1
  H  H307  1  0.35849459  0.48096470  0.48155145  1
  C  C308  1  0.27694315  0.45053981  0.27473643  1
  C  C309  1  0.42668296  0.35822615  0.20798611  1
  H  H310  1  0.42359953  0.32675232  0.20603042  1
  H  H311  1  0.34168230  0.36101645  0.10269677  1
  C  C312  1  0.42113287  0.45883164  0.09565554  1
  H  H313  1  0.27527643  0.32120376  0.15811748  1
  H  H314  1  0.49666439  0.27836229  0.16193572  1
  H  H315  1  0.43011352  0.29129569  0.35905489  1
  C  C316  1  0.26974342  0.29947304  0.37159695  1
  H  H317  1  0.44408678  0.29695525  0.05320627  1
  H  H318  1  0.45108363  0.40400240  0.33190445  1
  H  H319  1  0.37335860  0.40658243  0.14851187  1
  H  H320  1  0.33539017  0.37788309  0.25582767  1
  O  O321  1  0.38311351  0.27670683  0.13893073  1
  H  H322  1  0.30967328  0.46934328  0.23049254  1
  H  H323  1  0.45337249  0.42279492  0.46533025  1
  C  C324  1  0.27418834  0.40159809  0.39851688  1
  H  H325  1  0.41240648  0.48066032  0.33393941  1
  C  C326  1  0.32890087  0.29419279  0.32059657  1
  H  H327  1  0.30847225  0.38506721  0.44571606  1
  N  N328  1  0.27777680  0.29466560  0.12716906  1
  N  N329  1  0.30755569  0.42507227  0.33331338  1
  C  C330  1  0.33587318  0.28697690  0.18536623  1
  C  C331  1  0.38285108  0.29741155  0.39560810  1
  C  C332  1  0.47155436  0.36844020  0.10363230  1
  H  H333  1  0.41376605  0.36314242  0.40206707  1
  O  O334  1  0.29504640  0.49368369  0.06059059  1
  H  H335  1  0.49466823  0.39559034  0.13041590  1
  N  N336  1  0.48085174  0.31020189  0.01078136  1
  N  N337  1  0.42211928  0.09982205  0.85061880  1
  H  H338  1  0.35436747  0.06858219  0.67653039  1
  H  H339  1  0.33189500  0.08864019  0.84700193  1
  C  C340  1  0.37437489  0.08614381  0.90195349  1
  H  H341  1  0.34917041  0.13226739  0.67148265  1
  C  C342  1  0.33068693  0.15993406  0.65063056  1
  C  C343  1  0.44866581  0.04742668  0.67728931  1
  C  C344  1  0.47299996  0.10132878  0.91231426  1
  H  H345  1  0.34519884  0.03129949  0.86539148  1
  C  C346  1  0.38671272  0.05027463  0.63511521  1
  N  N347  1  0.37817406  0.18171911  0.61983372  1
  C  C348  1  0.36044769  0.21406255  0.57386701  1
  C  C349  1  0.26677473  0.17020259  0.63681933  1
  C  C350  1  0.29862124  0.22952875  0.55899433  1
  N  N351  1  0.35867472  0.03026426  0.55022708  1
  H  H352  1  0.46727632  0.06569910  0.74868447  1
  Cu  Cu353  1  0.27287480  0.04538032  0.52081814  1
  H  H354  1  0.29544164  0.14438885  0.88437837  1
  H  H355  1  0.39982549  0.23049822  0.54194175  1
  C  C356  1  0.42565180  0.23877436  0.91165515  1
  C  C357  1  0.31400501  0.01121796  0.90611684  1
  C  C358  1  0.25019234  0.20706655  0.59410251  1
  N  N359  1  0.39973147  0.20640646  0.94484382  1
  H  H360  1  0.48767372  0.19402134  0.77883443  1
  C  C361  1  0.28083765  0.14611876  0.97945806  1
  H  H362  1  0.44704385  0.03199860  0.93050875  1
  H  H363  1  0.27077571  0.21991171  0.81454214  1
  O  O364  1  0.26105609  0.09042315  0.70724600  1
  C  C365  1  0.46082334  0.00221013  0.95235236  1
  N  N366  1  0.28377287  0.04004387  0.98501745  1
  H  H367  1  0.48405423  0.11630022  0.62533016  1
  H  H368  1  0.26145874  0.11569608  0.52760119  1
  C  C369  1  0.49054140  0.02299707  0.62540025  1
  C  C370  1  0.48421067  0.25028329  0.95360753  1
  H  H371  1  0.49081401  0.42302242  0.87104188  1
  C  C372  1  0.27314545  0.45877034  0.67940081  1
  C  C373  1  0.48802886  0.43574743  0.95853654  1
  H  H374  1  0.28819516  0.25708727  0.51757716  1
  H  H375  1  0.29101714  0.32960898  0.62953983  1
  C  C376  1  0.26320174  0.40162355  0.83927007  1
  N  N377  1  0.26480525  0.33755266  0.89086739  1
  H  H378  1  0.39470203  0.25122007  0.84183628  1
  H  H379  1  0.27394437  0.33689883  0.80643944  1
  Cu  Cu380  1  0.26393524  0.28942952  0.95882404  1
  N  N381  1  0.42994638  0.44366509  0.98912170  1
  N  N382  1  0.40449290  0.40276914  0.60085350  1
  C  C383  1  0.41024171  0.38262347  0.69987832  1
  C  C384  1  0.30960087  0.31850561  0.54762778  1
  C  C385  1  0.29538789  0.43537027  0.86087480  1
  H  H386  1  0.36373629  0.38171900  0.74428334  1
  N  N387  1  0.30393884  0.46117881  0.77903615  1
  H  H388  1  0.40849700  0.31673499  0.58027199  1
  C  C389  1  0.45591658  0.40513614  0.54396783  1
  H  H390  1  0.27699826  0.48432549  0.61752016  1
  C  C391  1  0.25957140  0.37090489  0.93452197  1
  H  H392  1  0.43986529  0.48170872  0.69757779  1
  H  H393  1  0.45323692  0.34048119  0.82496249  1
  C  C394  1  0.48130079  0.48301214  0.63805782  1
  C  C395  1  0.46067672  0.36022770  0.74651747  1
  N  N396  1  0.39470224  0.49822032  0.50224650  1
  C  C397  1  0.46304255  0.49314784  0.50704959  1
  C  C398  1  0.37150044  0.31037910  0.51047858  1
  H  H399  1  0.31641152  0.44267659  0.94609904  1
  C  C400  1  0.35992674  0.60266114  0.33440405  1
  H  H401  1  0.38422439  0.59906951  0.42061143  1
  C  C402  1  0.40639926  0.59373144  0.22862040  1
  H  H403  1  0.34064898  0.63030390  0.32585057  1
  C  C404  1  0.40859066  0.55098505  0.20010285  1
  H  H405  1  0.30075628  0.70161331  0.35927602  1
  H  H406  1  0.45651255  0.60372620  0.24252857  1
  H  H407  1  0.32156315  0.58021756  0.33906792  1
  H  H408  1  0.45872672  0.66482656  0.27275390  1
  C  C409  1  0.44924748  0.69500980  0.25752193  1
  C  C410  1  0.37520644  0.61191175  0.11626887  1
  H  H411  1  0.36811198  0.67623169  0.12789793  1
  C  C412  1  0.39561081  0.65163968  0.09937964  1
  C  C413  1  0.45110920  0.71724444  0.15321484  1
  N  N414  1  0.44217149  0.70878010  0.36520823  1
  N  N415  1  0.28420105  0.67485236  0.36271892  1
  H  H416  1  0.36238850  0.53859246  0.17614484  1
  H  H417  1  0.42452743  0.53659006  0.28093944  1
  H  H418  1  0.32363192  0.60938968  0.12148472  1
  H  H419  1  0.26887635  0.69864493  0.11064992  1
  H  H420  1  0.44263850  0.54185426  0.13277808  1
  C  C421  1  0.27485752  0.52263975  0.41979035  1
  C  C422  1  0.28681704  0.65753811  0.47023400  1
  H  H423  1  0.38998163  0.59468311  0.03412352  1
  N  N424  1  0.45105063  0.69869757  0.03542934  1
  C  C425  1  0.44863456  0.66017212  0.04182586  1
  H  H426  1  0.47865417  0.52356172  0.48403495  1
  C  C427  1  0.25653717  0.65739957  0.26182684  1
  H  H428  1  0.29808023  0.51065781  0.34027851  1
  C  C429  1  0.26987051  0.51935652  0.01109356  1
  C  C430  1  0.43792839  0.74620847  0.36778797  1
  O  O431  1  0.27508765  0.62640205  0.49950539  1
  H  H432  1  0.28131250  0.99501178  0.17138493  1
  H  H433  1  0.40608876  0.99902907  0.23211114  1
  H  H434  1  0.36564325  0.99987731  0.07741195  1
  N  N435  1  0.26676693  0.75618897  0.24444146  1
  H  H436  1  0.25792809  0.89772373  0.37337864  1
  C  C437  1  0.29127023  0.75921206  0.03029621  1
  H  H438  1  0.37870426  0.86910238  0.26762265  1
  C  C439  1  0.47656668  0.85015066  0.06454373  1
  H  H440  1  0.41705126  0.91366636  0.45690700  1
  C  C441  1  0.41844877  0.83227561  0.06034731  1
  C  C442  1  0.29270281  0.85401170  0.11996660  1
  H  H443  1  0.44400118  0.80246911  0.28906231  1
  H  H444  1  0.47459054  0.96182731  0.40187930  1
  H  H445  1  0.42096780  0.75097516  0.45789000  1
  C  C446  1  0.45562261  0.75692608  0.15767010  1
  C  C447  1  0.38012824  0.86008855  0.36621558  1
  H  H448  1  0.49633360  0.89868552  0.21437041  1
  H  H449  1  0.34273441  0.80232821  0.34302895  1
  H  H450  1  0.40104276  0.82246712  0.14644617  1
  H  H451  1  0.29521336  0.90982477  0.02976458  1
  C  C452  1  0.45144210  0.98613892  0.23664842  1
  C  C453  1  0.35947689  0.82434261  0.40274847  1
  H  H454  1  0.43534093  0.92769407  0.03469291  1
  C  C455  1  0.31941265  0.89377133  0.10590871  1
  N  N456  1  0.49571332  0.97323275  0.47459573  1
  N  N457  1  0.44879390  0.94829873  0.22304284  1
  H  H458  1  0.36972828  0.89015350  0.08284042  1
  H  H459  1  0.37515177  0.99289156  0.42796092  1
  C  C460  1  0.30517356  0.75831127  0.15516960  1
  H  H461  1  0.35122227  0.75652817  0.19835053  1
  H  H462  1  0.31492504  0.91196325  0.18623130  1
  H  H463  1  0.30927997  0.83671083  0.19538102  1
  C  C464  1  0.44517124  0.77190171  0.27161959  1
  H  H465  1  0.45863785  0.77287545  0.06980963  1
  C  C466  1  0.39770699  0.88457293  0.45914854  1
  H  H467  1  0.32675386  0.95908041  0.00921486  1
  O  O468  1  0.32322727  0.75671319  0.48536918  1
  H  H469  1  0.48262298  0.83012254  0.49737055  1
  N  N470  1  0.40585195  0.55406405  0.84691912  1
  C  C471  1  0.39106915  0.58705635  0.80643759  1
  H  H472  1  0.42804717  0.60003163  0.75773695  1
  C  C473  1  0.36512745  0.53499890  0.90868087  1
  H  H474  1  0.32192364  0.62846245  0.78786098  1
  C  C475  1  0.33334531  0.60231677  0.82960272  1
  H  H476  1  0.38574261  0.64753916  0.64122433  1
  H  H477  1  0.29802062  0.71290812  0.56901124  1
  C  C478  1  0.31285073  0.68279328  0.57422282  1
  C  C479  1  0.38345047  0.67671497  0.60122878  1
  C  C480  1  0.40657134  0.70795182  0.68559157  1
  C  C481  1  0.28015015  0.55263155  0.61960912  1
  H  H482  1  0.30682059  0.56382439  0.69381332  1
  C  C483  1  0.38169097  0.70205685  0.81032940  1
  H  H484  1  0.38729193  0.67158628  0.84096265  1
  H  H485  1  0.32912015  0.70738822  0.81433645  1
  N  N486  1  0.28462664  0.66672174  0.68172447  1
  C  C487  1  0.28887310  0.58521159  0.90249324  1
  H  H488  1  0.40138208  0.72134019  0.87457751  1
  H  H489  1  0.39016974  0.73464892  0.64360517  1
  C  C490  1  0.47552541  0.71088733  0.68939624  1
  C  C491  1  0.30641034  0.54962799  0.94229893  1
  H  H492  1  0.26385006  0.64020756  0.66688411  1
  C  C493  1  0.30838072  0.53477843  0.52128104  1
  O  O494  1  0.41085628  0.56300639  0.54656846  1
  H  H495  1  0.49803854  0.71422113  0.59914012  1
  C  C496  1  0.37966209  0.53637416  0.52757990  1
  H  H497  1  0.49257766  0.73273157  0.75037707  1
  H  H498  1  0.38206805  0.50724110  0.93613082  1
  O  O499  1  0.49244848  0.63625679  0.99711551  1
  H  H500  1  0.40995768  0.68013655  0.51606417  1
  H  H501  1  0.49215590  0.68201008  0.72182250  1
  H  H502  1  0.48798892  0.71045512  0.98795378  1
  C  C503  1  0.46258135  0.99982973  0.53387948  1
  H  H504  1  0.29832844  0.80545732  0.71602140  1
  C  C505  1  0.49468152  0.86096320  0.94791604  1
  C  C506  1  0.25854586  0.92983736  0.77575253  1
  H  H507  1  0.28587756  0.88571492  0.51863393  1
  H  H508  1  0.28181818  0.75946720  0.72060389  1
  C  C509  1  0.43375033  0.93561123  0.93778688  1
  N  N510  1  0.30029005  0.78178896  0.67081745  1
  H  H511  1  0.46519923  0.86751556  0.75682210  1
  N  N512  1  0.40219930  0.87695894  0.57471720  1
  N  N513  1  0.25908975  0.85987592  0.76819103  1
  H  H514  1  0.40300309  0.91233551  0.90154691  1
  C  C515  1  0.28524042  0.89263727  0.75963963  1
  C  C516  1  0.26834653  0.99074683  0.82029658  1
  N  N517  1  0.40003064  0.84355125  0.84905464  1
  C  C518  1  0.35193081  0.81915623  0.52628045  1
  H  H519  1  0.39771559  0.97871407  0.81908555  1
  C  C520  1  0.35416338  0.98508200  0.98785853  1
  H  H521  1  0.32637026  0.75880470  0.96361192  1
  C  C522  1  0.45655743  0.85722630  0.84523322  1
  H  H523  1  0.38315881  0.83811011  0.70476518  1
  H  H524  1  0.48189833  0.92961814  0.90756262  1
  C  C525  1  0.41090727  0.97436862  0.91479267  1
  H  H526  1  0.33629492  0.88875589  0.73729316  1
  C  C527  1  0.32511924  0.78027990  0.55911674  1
  C  C528  1  0.37656452  0.84393229  0.60896130  1
  N  N529  1  0.29368370  0.95930645  0.78731417  1
  C  C530  1  0.38180269  0.83137576  0.95606381  1
  H  H531  1  0.33672449  0.81653119  0.94642471  1
  H  H532  1  0.25338171  0.94538428  0.99670475  1
  H  H533  1  0.62994446  0.16654793  0.25195467  1
  C  C534  1  0.67788757  0.21386307  0.30810405  1
  N  N535  1  0.61023499  0.16407659  0.33283657  1
  C  C536  1  0.64596831  0.18530708  0.40125079  1
  H  H537  1  0.56510282  0.10082283  0.21120971  1
  C  C538  1  0.56788926  0.13849026  0.37525559  1
  C  C539  1  0.54821924  0.10701549  0.29906704  1
  C  C540  1  0.63185887  0.03750290  0.39598245  1
  H  H541  1  0.66846612  0.01909811  0.35907187  1
  C  C542  1  0.68086037  0.11397821  0.15244745  1
  H  H543  1  0.61788448  0.05666800  0.32076340  1
  C  C544  1  0.68683616  0.07535819  0.13402204  1
  H  H545  1  0.66050033  0.20784232  0.11105827  1
  N  N546  1  0.65672021  0.13919108  0.07907260  1
  H  H547  1  0.69694102  0.12675921  0.23729790  1
  H  H548  1  0.59098516  0.01870147  0.41530636  1
  C  C549  1  0.64649888  0.22630399  0.18858981  1
  H  H550  1  0.71509026  0.05850738  0.19323542  1
  H  H551  1  0.59504516  0.22588413  0.20170441  1
  H  H552  1  0.69546125  0.23946656  0.35254286  1
  H  H553  1  0.73512476  0.07088408  0.43408873  1
  H  H554  1  0.50751032  0.03651101  0.26767520  1
  C  C555  1  0.50781643  0.00683973  0.23560289  1
  H  H556  1  0.56220600  0.23425573  0.06032113  1
  H  H557  1  0.52713002  0.09552501  0.07448673  1
  H  H558  1  0.68703806  0.11298797  0.45276726  1
  H  H559  1  0.51531925  0.17106819  0.11608890  1
  C  C560  1  0.54252235  0.14178607  0.49321805  1
  H  H561  1  0.60763418  0.00540818  0.18883878  1
  C  C562  1  0.50131601  0.23527635  0.36160095  1
  N  N563  1  0.51479949  0.07932918  0.33608675  1
  C  C564  1  0.51678504  0.22518104  0.02627412  1
  N  N565  1  0.73837206  0.19828552  0.27516309  1
  C  C566  1  0.66785940  0.05785196  0.02884034  1
  H  H567  1  0.67500010  0.02793321  0.00723663  1
  H  H568  1  0.72713193  0.17676868  0.21127699  1
  C  C569  1  0.70033001  0.08607141  0.49466348  1
  O  O570  1  0.70750280  0.48131502  0.45759630  1
  H  H571  1  0.58577163  0.28745923  0.04696518  1
  H  H572  1  0.73072304  0.36844956  0.11340971  1
  H  H573  1  0.73771924  0.37728890  0.34342512  1
  H  H574  1  0.66161174  0.30541375  0.01291406  1
  H  H575  1  0.70447413  0.45340359  0.30232814  1
  C  C576  1  0.71220770  0.43740802  0.21612445  1
  N  N577  1  0.52198219  0.28780135  0.22861692  1
  C  C578  1  0.52032518  0.33686971  0.07500332  1
  H  H579  1  0.63960216  0.43215805  0.42447671  1
  O  O580  1  0.54698558  0.46448463  0.40060212  1
  C  C581  1  0.53024699  0.45140944  0.15222399  1
  C  C582  1  0.63614562  0.27993371  0.03840973  1
  H  H583  1  0.55908292  0.41558975  0.44097991  1
  H  H584  1  0.57020796  0.45340879  0.21646341  1
  O  O585  1  0.58298642  0.34078454  0.25169011  1
  C  C586  1  0.66138461  0.40464070  0.44941740  1
  C  C587  1  0.54653412  0.32141014  0.19883236  1
  H  H588  1  0.69025443  0.47963722  0.00160032  1
  H  H589  1  0.55104206  0.32667388  0.44191826  1
  C  C590  1  0.53629322  0.29609681  0.44397444  1
  H  H591  1  0.65042785  0.28534816  0.23417605  1
  H  H592  1  0.64863329  0.35197348  0.11450953  1
  C  C593  1  0.52426234  0.27229887  0.34074395  1
  C  C594  1  0.67259267  0.40362928  0.22232240  1
  H  H595  1  0.66957895  0.35394913  0.33699405  1
  C  C596  1  0.67986544  0.37777098  0.11645193  1
  H  H597  1  0.70409707  0.45766572  0.14338345  1
  H  H598  1  0.66853371  0.39579912  0.03589913  1
  C  C599  1  0.68623210  0.38191000  0.33746261  1
  C  C600  1  0.66556492  0.26698134  0.16166016  1
  H  H601  1  0.62288892  0.41459697  0.22041485  1
  H  H602  1  0.74980436  0.25527541  0.05336692  1
  C  C603  1  0.73766573  0.26972624  0.13529491  1
  H  H604  1  0.55645846  0.34339667  0.00759655  1
  C  C605  1  0.53941578  0.44129211  0.03427273  1
  C  C606  1  0.67163902  0.03006248  0.60213352  1
  C  C607  1  0.67455220  0.04050299  0.73890309  1
  C  C608  1  0.65025282  0.20295335  0.80221183  1
  C  C609  1  0.65779336  0.16640679  0.76137484  1
  H  H610  1  0.69199472  0.06927033  0.75243304  1
  C  C611  1  0.58751970  0.21493955  0.80370125  1
  C  C612  1  0.60644035  0.14376390  0.73049880  1
  N  N613  1  0.59797457  0.06908931  0.85525790  1
  H  H614  1  0.60863619  0.11426925  0.68637590  1
  N  N615  1  0.54875431  0.15497574  0.74128581  1
  H  H616  1  0.68755810  0.22327245  0.82586551  1
  C  C617  1  0.61335303  0.03308842  0.81587423  1
  Cu  Cu618  1  0.71137863  0.21437253  0.58504956  1
  C  C619  1  0.63279830  0.08378311  0.95803424  1
  C  C620  1  0.53919492  0.19085467  0.77183925  1
  H  H621  1  0.55266037  0.06278068  0.88621363  1
  H  H622  1  0.61157120  0.14481851  0.92367581  1
  H  H623  1  0.71936206  0.02142994  0.56923457  1
  H  H624  1  0.72193787  0.09604563  0.58645600  1
  N  N625  1  0.72933387  0.02077279  0.78295166  1
  C  C626  1  0.72211389  0.14910895  0.74316109  1
  H  H627  1  0.60711636  0.07245077  0.54526254  1
  H  H628  1  0.55529036  0.16700192  0.55176888  1
  H  H629  1  0.64514292  0.00318750  0.59551586  1
  H  H630  1  0.57408441  0.24433597  0.82914904  1
  O  O631  1  0.73236564  0.11626638  0.74530250  1
  C  C632  1  0.63187217  0.12291153  0.98175672  1
  H  H633  1  0.53765485  0.02088765  0.65772725  1
  H  H634  1  0.73856249  0.00652649  0.85986493  1
  H  H635  1  0.51837271  0.24897925  0.67001404  1
  C  C636  1  0.50092148  0.11481789  0.53015905  1
  O  O637  1  0.58814747  0.00339154  0.83345925  1
  C  C638  1  0.64834395  0.05813849  0.50980407  1
  H  H639  1  0.50741842  0.11438293  0.85785598  1
  O  O640  1  0.65151359  0.18757470  0.51351213  1
  C  C641  1  0.50891232  0.25055419  0.57310362  1
  H  H642  1  0.50712831  0.49104022  0.88359531  1
  N  N643  1  0.56181690  0.39312461  0.50601678  1
  C  C644  1  0.54693092  0.49436794  0.82242005  1
  N  N645  1  0.53285732  0.28499166  0.55412418  1
  C  C646  1  0.51356420  0.35991593  0.67674895  1
  H  H647  1  0.50199557  0.45376279  0.63038529  1
  O  O648  1  0.55185295  0.29752832  0.85276853  1
  N  N649  1  0.66423848  0.44589786  0.86694544  1
  C  C650  1  0.69623560  0.46474291  0.66713210  1
  H  H651  1  0.64807099  0.41052162  0.73284200  1
  O  O652  1  0.63575357  0.35513703  0.59712907  1
  C  C653  1  0.68814718  0.47894106  0.90179305  1
  C  C654  1  0.70698056  0.45722421  0.53056873  1
  N  N655  1  0.71627533  0.41770961  0.51704958  1
  C  C656  1  0.51534625  0.28907406  0.92550208  1
  H  H657  1  0.71104774  0.31237759  0.71144352  1
  C  C658  1  0.74315776  0.32192812  0.78262232  1
  C  C659  1  0.51259201  0.38609969  0.57849359  1
  N  N660  1  0.72474658  0.35687685  0.80871071  1
  C  C661  1  0.61898251  0.37865810  0.52695771  1
  H  H662  1  0.60533881  0.48179437  0.60575089  1
  H  H663  1  0.56941335  0.46694087  0.81179345  1
  C  C664  1  0.66710753  0.43959760  0.74667637  1
  H  H665  1  0.64102981  0.25862249  0.96825468  1
  H  H666  1  0.55409584  0.34508766  0.70018596  1
  H  H667  1  0.58846279  0.43862731  0.99455376  1
  H  H668  1  0.72081803  0.41134887  0.60641270  1
  C  C669  1  0.63535477  0.65035319  0.38553351  1
  C  C670  1  0.58474251  0.67997840  0.36358436  1
  C  C671  1  0.69975385  0.65989069  0.32260681  1
  C  C672  1  0.61005761  0.56091294  0.33219593  1
  H  H673  1  0.70134864  0.68001220  0.24551993  1
  N  N674  1  0.71861880  0.62683549  0.25465945  1
  H  H675  1  0.61506331  0.54962943  0.23853226  1
  C  C676  1  0.60172278  0.71608645  0.42272813  1
  C  C677  1  0.57345081  0.68082502  0.22904943  1
  N  N678  1  0.66508172  0.56360334  0.39153958  1
  C  C679  1  0.71534984  0.63130146  0.13226751  1
  H  H680  1  0.61234357  0.66480876  0.18056895  1
  H  H681  1  0.54608998  0.66703646  0.41453191  1
  H  H682  1  0.62023927  0.62294313  0.35245796  1
  O  O683  1  0.69398512  0.65650557  0.07309690  1
  H  H684  1  0.52913420  0.66419300  0.21083171  1
  H  H685  1  0.56417407  0.70947068  0.19404017  1
  H  H686  1  0.64302635  0.72893639  0.37881932  1
  C  C687  1  0.55230650  0.56711674  0.38638585  1
  H  H688  1  0.72934955  0.60201526  0.29406377  1
  C  C689  1  0.54883624  0.58651006  0.49520992  1
  H  H690  1  0.56351880  0.73794409  0.41915977  1
  H  H691  1  0.64380094  0.65063433  0.48059519  1
  H  H692  1  0.50877816  0.55770523  0.33948116  1
  H  H693  1  0.64904025  0.69944119  0.04520774  1
  C  C694  1  0.74948395  0.73619900  0.48483754  1
  C  C695  1  0.74751057  0.66951111  0.42569637  1
  H  H696  1  0.72724016  0.55532814  0.22339963  1
  H  H697  1  0.57059845  0.66938067  0.02125063  1
  N  N698  1  0.61011747  0.74894442  0.07141749  1
  C  C699  1  0.66279273  0.58062244  0.49565559  1
  H  H700  1  0.68761823  0.89039890  0.32221205  1
  H  H701  1  0.72483756  0.82623017  0.16305927  1
  H  H702  1  0.69390903  0.95908125  0.39987405  1
  H  H703  1  0.50699826  0.85029312  0.14851598  1
  H  H704  1  0.59037858  0.88808344  0.40050014  1
  H  H705  1  0.56122439  0.90012403  0.01096616  1
  C  C706  1  0.72432301  0.87366761  0.28299123  1
  H  H707  1  0.72384537  0.99895980  0.23398985  1
  C  C708  1  0.50118774  0.93098895  0.21022709  1
  H  H709  1  0.68228919  0.88769671  0.04054478  1
  C  C710  1  0.66215904  0.94825672  0.11079811  1
  H  H711  1  0.68074866  0.81533656  0.28571756  1
  H  H712  1  0.61637318  0.84283650  0.34632047  1
  O  O713  1  0.67208999  0.97918230  0.07721179  1
  C  C714  1  0.74286145  0.96841654  0.39569228  1
  C  C715  1  0.70705438  0.91249646  0.08619813  1
  H  H716  1  0.64832497  0.84599772  0.17296288  1
  H  H717  1  0.60901773  0.90141489  0.14259864  1
  C  C718  1  0.55941808  0.95066537  0.17861559  1
  N  N719  1  0.60887990  0.93036016  0.14962789  1
  C  C720  1  0.58209072  0.85730604  0.40195584  1
  C  C721  1  0.56338716  0.99072744  0.20110322  1
  C  C722  1  0.69165174  0.83985337  0.22422937  1
  H  H723  1  0.55792658  0.79712450  0.09825909  1
  H  H724  1  0.53585604  0.85394423  0.36247355  1
  C  C725  1  0.55320882  0.96252370  0.48786088  1
  C  C726  1  0.57410942  0.77684229  0.02624313  1
  H  H727  1  0.53471337  0.79085497  0.48301564  1
  C  C728  1  0.59636800  0.63383993  0.86292855  1
  N  N729  1  0.64446788  0.66255930  0.84966815  1
  C  C730  1  0.56688906  0.61860680  0.73864965  1
  H  H731  1  0.65367724  0.61996429  0.70032787  1
  N  N732  1  0.61339639  0.60860448  0.66678097  1
  H  H733  1  0.66261236  0.66597702  0.93351344  1
  C  C734  1  0.61003315  0.72452968  0.86840158  1
  C  C735  1  0.62220875  0.69352227  0.78214503  1
  C  C736  1  0.54736083  0.65316912  0.94425061  1
  O  O737  1  0.61266763  0.69810907  0.67793441  1
  C  C738  1  0.60664727  0.59216161  0.55420680  1
  H  H739  1  0.71589560  0.69621368  0.62254562  1
  H  H740  1  0.62515596  0.52827982  0.66279554  1
  H  H741  1  0.73944697  0.53183919  0.86252474  1
  H  H742  1  0.52557843  0.67364106  0.88156705  1
  C  C743  1  0.72282770  0.72563844  0.59158979  1
  H  H744  1  0.62092086  0.61075989  0.91381339  1
  C  C745  1  0.52967957  0.50804124  0.70063466  1
  H  H746  1  0.50856166  0.53673462  0.70567240  1
  H  H747  1  0.73308340  0.51880632  0.64111850  1
  C  C748  1  0.71186687  0.50872840  0.82911513  1
  H  H749  1  0.57999454  0.51395272  0.87250244  1
  O  O750  1  0.51268305  0.61646345  0.72290402  1
  H  H751  1  0.72917048  0.69752330  0.88831471  1
  H  H752  1  0.50612403  0.59161011  0.54862056  1
  C  C753  1  0.71480593  0.50049570  0.70730463  1
  H  H754  1  0.71134257  0.58087029  0.52901221  1
  C  C755  1  0.58585067  0.51123753  0.62126320  1
  H  H756  1  0.61129577  0.71294308  0.52314614  1
  C  C757  1  0.62337893  0.72252119  0.99278398  1
  H  H758  1  0.57063794  0.52344910  0.53375208  1
  O  O759  1  0.60493638  0.95487210  0.50327095  1
  C  C760  1  0.57997989  0.75581641  0.82176851  1
  H  H761  1  0.56614691  0.75586482  0.72426473  1
  H  H762  1  0.50922572  0.99876991  0.91203303  1
  C  C763  1  0.55868675  0.78300190  0.90625981  1
  H  H764  1  0.62565816  0.82436357  0.55484591  1
  C  C765  1  0.69928416  0.83821674  0.88200370  1
  C  C766  1  0.52616427  0.81709029  0.53496226  1
  C  C767  1  0.70678726  0.75742392  0.66110572  1
  H  H768  1  0.69374999  0.75264469  0.75895498  1
  H  H769  1  0.70978742  0.82181781  0.65855818  1
  C  C770  1  0.56356007  0.89681453  0.82408417  1
  C  C771  1  0.56636143  0.86808907  0.74249387  1
  H  H772  1  0.51110819  0.80894470  0.62608244  1
  H  H773  1  0.52582832  0.80546739  0.87813371  1
  C  C774  1  0.74563015  0.86579779  0.90608638  1
  C  C775  1  0.58636644  0.84396525  0.53311327  1
  C  C776  1  0.57708293  0.87682372  0.61962880  1
  N  N777  1  0.55151650  0.88286016  0.94030200  1
  H  H778  1  0.54487887  0.90041603  0.58815111  1
  H  H779  1  0.68671061  0.77845484  0.90419141  1
  O  O780  1  0.69359521  0.92122139  0.81787399  1
  H  H781  1  0.65370632  0.84485954  0.84363869  1
  C  C782  1  0.72398621  0.90679841  0.89949970  1
  O  O783  1  0.56641185  0.93197513  0.80416983  1
  Cu  Cu784  1  0.63792755  0.96345147  0.82413938  1
  C  C785  1  0.71479058  0.80271643  0.92400125  1
  H  H786  1  0.55628536  0.84017066  0.77585060  1
  C  C787  1  0.71814855  0.79389565  0.61946902  1
  H  H788  1  0.62078152  0.89409733  0.61367360  1
  H  H789  1  0.74842204  0.95615077  0.99531382  1
  N  N790  1  0.74425619  0.80288309  0.51368167  1
  O  O791  1  0.93921538  0.03671013  0.22704764  1
  C  C792  1  0.79286425  0.14871098  0.36430197  1
  C  C793  1  0.95903720  0.01617672  0.32185094  1
  H  H794  1  0.91814752  0.12198850  0.41965490  1
  H  H795  1  0.87157943  0.05353009  0.37358730  1
  C  C796  1  0.84653911  0.08083453  0.35775126  1
  C  C797  1  0.82495091  0.09653799  0.25061051  1
  H  H798  1  0.83211539  0.08253326  0.16192907  1
  C  C799  1  0.79775574  0.13213503  0.25205405  1
  N  N800  1  0.94896241  0.14216791  0.45249176  1
  H  H801  1  0.87284793  0.16510971  0.11649107  1
  C  C802  1  0.81386251  0.12685164  0.46291217  1
  H  H803  1  0.78203206  0.14622646  0.17305931  1
  C  C804  1  0.76884671  0.18699987  0.37746971  1
  N  N805  1  0.83999659  0.09362589  0.46635268  1
  O  O806  1  0.77603386  0.20573784  0.47227788  1
  O  O807  1  0.95895554  0.15773205  0.18755512  1
  H  H808  1  0.83810824  0.02102137  0.21209957  1
  H  H809  1  0.92030456  0.09320910  0.04112109  1
  C  C810  1  0.98301342  0.17089064  0.27246334  1
  H  H811  1  0.82553516  0.20187731  0.04431177  1
  H  H812  1  0.91506333  0.01613267  0.18355506  1
  C  C813  1  0.86610310  0.18198421  0.03195050  1
  H  H814  1  0.96966807  0.22631452  0.25202656  1
  H  H815  1  0.81546919  0.11653414  0.02760150  1
  H  H816  1  0.90715459  0.20099770  0.02211557  1
  C  C817  1  0.82107209  0.00290656  0.28782689  1
  N  N818  1  0.99487156  0.20833428  0.30181548  1
  H  H819  1  0.96986404  0.34494856  0.46011819  1
  H  H820  1  0.80054800  0.25500183  0.39596380  1
  C  C821  1  0.88794587  0.44454854  0.34356673  1
  H  H822  1  0.92356255  0.46651347  0.32194978  1
  C  C823  1  0.87996190  0.27619842  0.22071218  1
  H  H824  1  0.79328979  0.44198268  0.39692904  1
  N  N825  1  0.85391994  0.44894437  0.07149590  1
  C  C826  1  0.90495779  0.43094532  0.05243314  1
  H  H827  1  0.76477904  0.25857007  0.20988854  1
  H  H828  1  0.76159424  0.42874930  0.21269313  1
  C  C829  1  0.85372616  0.30154385  0.31063004  1
  C  C830  1  0.83096041  0.46128886  0.40628269  1
  H  H831  1  0.91003844  0.42198093  0.39844087  1
  H  H832  1  0.87790871  0.43153009  0.25642763  1
  H  H833  1  0.85314707  0.30479130  0.00575524  1
  C  C834  1  0.86842591  0.34157371  0.31339047  1
  H  H835  1  0.84030290  0.37764539  0.01004890  1
  H  H836  1  0.75247268  0.29950656  0.12807552  1
  H  H837  1  0.77401912  0.47311557  0.00555979  1
  C  C838  1  0.78422529  0.31222559  0.46955701  1
  N  N839  1  0.84421825  0.36564282  0.38945044  1
  C  C840  1  0.80981724  0.28573070  0.39203647  1
  H  H841  1  0.93199953  0.42157678  0.13084999  1
  C  C842  1  0.80084208  0.35094533  0.45939528  1
  O  O843  1  0.89732654  0.25180808  0.15852281  1
  H  H844  1  0.90346165  0.35539710  0.26077441  1
  H  H845  1  0.83034555  0.49688392  0.24319780  1
  C  C846  1  0.82039326  0.49811957  0.34089493  1
  Cu  Cu847  1  0.87317063  0.07271965  0.62554164  1
  O  O848  1  0.94615825  0.09598399  0.60596477  1
  O  O849  1  0.80057800  0.04755132  0.64548304  1
  C  C850  1  0.85625903  0.18061303  0.81003007  1
  H  H851  1  0.86452645  0.16139175  0.73180942  1
  C  C852  1  0.78625702  0.02984164  0.73639456  1
  H  H853  1  0.89720452  0.19851074  0.79317550  1
  C  C854  1  0.95912121  0.12814214  0.56514051  1
  H  H855  1  0.79204281  0.17496293  0.64409625  1
  H  H856  1  0.80619465  0.13730916  0.55332064  1
  H  H857  1  0.90068254  0.05435014  0.85102572  1
  C  C858  1  0.78845284  0.19994292  0.80823359  1
  C  C859  1  0.86102948  0.15802868  0.92053340  1
  C  C860  1  0.94915435  0.06190781  0.87371345  1
  C  C861  1  0.81443380  0.12561390  0.93145647  1
  H  H862  1  0.90483341  0.14266424  0.91987298  1
  H  H863  1  0.82394367  0.10231753  0.86727886  1
  H  H864  1  0.76577507  0.13529682  0.91070941  1
  C  C865  1  0.83323264  0.00909232  0.81484376  1
  C  C866  1  0.98475600  0.16018712  0.63722439  1
  H  H867  1  0.98414305  0.21224198  0.51174195  1
  C  C868  1  0.78009910  0.24104010  0.76724945  1
  C  C869  1  0.82928120  0.00997985  0.94185064  1
  H  H870  1  0.75475080  0.18919916  0.87542615  1
  H  H871  1  0.99454995  0.12378444  0.80073141  1
  N  N872  1  0.76040215  0.17838460  0.70793527  1
  C  C873  1  0.95609930  0.08575463  0.97683230  1
  C  C874  1  0.99330403  0.19869914  0.60159983  1
  C  C875  1  0.99902888  0.04914293  0.80944590  1
  H  H876  1  0.99495486  0.02885285  0.73945293  1
  O  O877  1  0.75229079  0.24845149  0.67097965  1
  H  H878  1  0.79819195  0.02702443  0.99552264  1
  H  H879  1  0.82586821  0.25409470  0.92406063  1
  H  H880  1  0.77700092  0.37348482  0.51231085  1
  C  C881  1  0.81892924  0.45887606  0.97743101  1
  H  H882  1  0.75450754  0.30128756  0.54469256  1
  C  C883  1  0.89416632  0.49965141  0.56271679  1
  C  C884  1  0.91233110  0.31804690  0.70201634  1
  C  C885  1  0.87570227  0.35400834  0.68234963  1
  N  N886  1  0.80287877  0.26251933  0.85098698  1
  H  H887  1  0.88321299  0.36803633  0.58984019  1
  H  H888  1  0.85534952  0.27013056  0.65610131  1
  H  H889  1  0.90241287  0.31031955  0.79887009  1
  C  C890  1  0.76700909  0.37482614  0.87493793  1
  H  H891  1  0.75197126  0.40480815  0.87296490  1
  H  H892  1  0.89361111  0.37614739  0.74586453  1
  C  C893  1  0.98017309  0.39540860  0.92965820  1
  H  H894  1  0.98897636  0.34889764  0.62710407  1
  C  C895  1  0.89163518  0.43630251  0.83718364  1
  H  H896  1  0.91875619  0.47839860  0.71242625  1
  H  H897  1  0.82425201  0.34819238  0.69046536  1
  N  N898  1  0.94571581  0.48303457  0.63458977  1
  H  H899  1  0.80235757  0.47814824  0.58891495  1
  C  C900  1  0.84309744  0.46875128  0.53570290  1
  C  C901  1  0.82271472  0.32009392  0.94397132  1
  C  C902  1  0.83666536  0.45755577  0.85647316  1
  H  H903  1  0.80943674  0.46834516  0.78243995  1
  C  C904  1  0.81436990  0.35864919  0.95010946  1
  C  C905  1  0.97832765  0.32955443  0.70347042  1
  C  C906  1  0.92390309  0.42189394  0.93747957  1
  H  H907  1  0.97812243  0.40365625  0.73799718  1
  H  H908  1  0.88608185  0.29537651  0.52842470  1
  O  O909  1  0.96265837  0.41873502  0.59869073  1
  C  C910  1  0.78695675  0.30134998  0.85681674  1
  H  H911  1  0.85931603  0.44126088  0.57155759  1
  H  H912  1  0.93292161  0.26378461  0.61617285  1
  H  H913  1  0.90622396  0.42857632  0.74633214  1
  C  C914  1  0.89542924  0.28551818  0.62307686  1
  H  H915  1  0.97503674  0.33842449  0.90411882  1
  C  C916  1  0.97045847  0.45181663  0.57796514  1
  N  N917  1  0.99594289  0.39067746  0.81552907  1
  C  C918  1  0.90783758  0.59763802  0.37795477  1
  C  C919  1  0.90272708  0.57132587  0.27179939  1
  N  N920  1  0.78796029  0.53585411  0.11780927  1
  C  C921  1  0.86431601  0.63017322  0.36720862  1
  H  H922  1  0.87856376  0.64940814  0.29688172  1
  H  H923  1  0.86072604  0.64754555  0.45275902  1
  C  C924  1  0.97464392  0.61170892  0.38591015  1
  H  H925  1  0.89606741  0.58276763  0.46197748  1
  H  H926  1  0.85499953  0.55993876  0.25772658  1
  C  C927  1  0.94985762  0.71418170  0.40758995  1
  H  H928  1  0.81473721  0.61920900  0.34081298  1
  H  H929  1  0.97936167  0.63880407  0.33464434  1
  H  H930  1  0.91593338  0.58466875  0.18315196  1
  H  H931  1  0.93636022  0.54673810  0.27869403  1
  H  H932  1  0.80662279  0.70240643  0.36446600  1
  N  N933  1  0.76110895  0.70828819  0.39195132  1
  H  H934  1  0.91057028  0.73113662  0.23443396  1
  C  C935  1  0.97732192  0.62707138  0.06549525  1
  C  C936  1  0.94044332  0.74088095  0.31299615  1
  H  H937  1  0.77498979  0.68370020  0.07835007  1
  N  N938  1  0.85937207  0.70525879  0.05262182  1
  H  H939  1  0.84858868  0.52092693  0.37730466  1
  H  H940  1  0.95612672  0.65452493  0.04736202  1
  H  H941  1  0.92966438  0.68712328  0.42074776  1
  H  H942  1  0.77169528  0.50801578  0.35095762  1
  O  O943  1  0.99544150  0.70043194  0.13060538  1
  C  C944  1  0.80092337  0.70104085  0.01964209  1
  C  C945  1  0.82618919  0.54215641  0.02332721  1
  H  H946  1  0.94001064  0.73056283  0.02602963  1
  C  C947  1  0.75539884  0.56376366  0.14645531  1
  H  H948  1  0.92101220  0.50597928  0.48296468  1
  C  C949  1  0.75085969  0.59849941  0.08093580  1
  C  C950  1  0.98212269  0.55978709  0.03700039  1
  H  H951  1  0.95906640  0.53284127  0.01212828  1
  C  C952  1  0.95433790  0.59519226  0.01132953  1
  H  H953  1  0.85652191  0.51764878  0.02188288  1
  H  H954  1  0.75697686  0.83905905  0.43381907  1
  C  C955  1  0.75972665  0.99306638  0.29813402  1
  C  C956  1  0.90661652  0.92079696  0.24387173  1
  H  H957  1  0.78753044  0.88843095  0.42752752  1
  C  C958  1  0.77357894  0.86260816  0.37243111  1
  C  C959  1  0.92428565  0.86268117  0.17154598  1
  H  H960  1  0.94838432  0.86137918  0.45758372  1
  C  C961  1  0.75374497  0.89710057  0.18749698  1
  C  C962  1  0.97043204  0.92882979  0.25528378  1
  N  N963  1  0.92346922  0.99674843  0.39979444  1
  H  H964  1  0.98448571  0.95594344  0.30113654  1
  H  H965  1  0.94507505  0.98439139  0.47527814  1
  H  H966  1  0.88259988  0.89364760  0.45885911  1
  H  H967  1  0.87101269  0.94041023  0.27076824  1
  H  H968  1  0.81709594  0.85174746  0.32785900  1
  O  O969  1  0.99790572  0.80960648  0.04302754  1
  C  C970  1  0.76161119  0.77356900  0.44940420  1
  H  H971  1  0.96200354  0.79574289  0.23723133  1
  H  H972  1  0.94188188  0.95656529  0.03166421  1
  N  N973  1  0.88541618  0.88771893  0.20796497  1
  H  H974  1  0.79482172  0.88133997  0.15325351  1
  H  H975  1  0.78050872  0.78248544  0.36348360  1
  H  H976  1  0.77024949  0.92116687  0.23711546  1
  C  C977  1  0.86152384  0.98952616  0.38149507  1
  C  C978  1  0.96815996  0.77568130  0.31113602  1
  C  C979  1  0.98912355  0.86727364  0.17593480  1
  H  H980  1  0.89979939  0.84007488  0.12261446  1
  N  N981  1  0.86985147  0.99235196  0.01310061  1
  C  C982  1  0.83554063  0.96461400  0.47273047  1
  N  N983  1  0.77977665  0.95029722  0.47094842  1
  C  C984  1  0.81095864  0.73126262  0.82930578  1
  C  C985  1  0.90159675  0.59110695  0.70366583  1
  N  N986  1  0.89450181  0.55072187  0.70278163  1
  C  C987  1  0.86108272  0.53692315  0.60619543  1
  C  C988  1  0.85808024  0.61686465  0.65229721  1
  C  C989  1  0.91370797  0.66866496  0.72553214  1
  N  N990  1  0.86592279  0.65379699  0.66600434  1
  H  H991  1  0.93225284  0.53491995  0.70435391  1
  C  C992  1  0.95250555  0.60674454  0.76755941  1
  H  H993  1  0.82895503  0.66754761  0.63116318  1
  C  C994  1  0.77446955  0.71187187  0.91190721  1
  H  H995  1  0.90918746  0.69842654  0.73465441  1
  H  H996  1  0.81629495  0.60723008  0.60472294  1
  H  H997  1  0.85291298  0.57006998  0.86275952  1
  O  O998  1  0.81542332  0.54905322  0.55954542  1
  C  C999  1  0.82193691  0.57221265  0.94357508  1
  C  C1000  1  0.86937931  0.74100218  0.87642400  1
  H  H1001  1  0.90932682  0.59812929  0.96365786  1
  C  C1002  1  0.95633868  0.64607768  0.78129169  1
  H  H1003  1  0.97002000  0.63762443  0.57396037  1
  C  C1004  1  0.78609665  0.60359428  0.97841706  1
  C  C1005  1  0.89242306  0.72653789  0.98731408  1
  H  H1006  1  0.78435762  0.63008510  0.92803028  1
  N  N1007  1  0.97901373  0.72256421  0.50917586  1
  H  H1008  1  0.79658428  0.73928791  0.73765916  1
  O  O1009  1  0.76365870  0.65239917  0.51115631  1
  H  H1010  1  0.99564574  0.65764084  0.83389564  1
  H  H1011  1  0.98724013  0.58861077  0.80430574  1
  C  C1012  1  0.99225594  0.61558021  0.51857160  1
  N  N1013  1  0.75006735  0.92696468  0.99493324  1
  H  H1014  1  0.98915025  0.86771068  0.94903656  1
  H  H1015  1  0.99321348  0.86633766  0.72319288  1
  C  C1016  1  0.91657967  0.76009139  0.79320815  1
  H  H1017  1  0.92676466  0.84804117  0.75500404  1
  C  C1018  1  0.90987096  0.83011808  0.68488696  1
  H  H1019  1  0.86434050  0.95050560  0.53592187  1
  C  C1020  1  0.91523235  0.87787876  0.51706045  1
  N  N1021  1  0.88355308  0.76192597  0.67732838  1
  H  H1022  1  0.96211353  0.95101067  0.80779360  1
  C  C1023  1  0.80556687  0.85757211  0.95179572  1
  H  H1024  1  0.80019546  0.86183871  0.73190183  1
  H  H1025  1  0.85622958  0.89676740  0.73512019  1
  O  O1026  1  0.97714210  0.75962726  0.79813485  1
  C  C1027  1  0.77476065  0.79719266  0.97355750  1
  H  H1028  1  0.94374238  0.90009235  0.56743723  1
  H  H1029  1  0.91404911  0.75712057  0.60757709  1
  C  C1030  1  0.88272480  0.98923649  0.76380743  1
  H  H1031  1  0.89167346  0.98984277  0.67109561  1
  H  H1032  1  0.94968976  0.81868584  0.63455914  1
  C  C1033  1  0.92278684  0.96934458  0.84030792  1
  H  H1034  1  0.82873459  0.79997282  0.78199001  1
  H  H1035  1  0.80345992  0.89867347  0.61541058  1
  C  C1036  1  0.83063817  0.87854762  0.67067638  1
  H  H1037  1  0.84285836  0.83678566  0.53270171  1
  C  C1038  1  0.87332781  0.79611019  0.73570026  1
  C  C1039  1  0.87312669  0.85429917  0.59448415  1
  H  H1040  1  0.84253136  0.87677647  0.98514957  1
  H  H1041  1  0.79914282  0.77116207  0.99789809  1
  C  C1042  1  0.91319682  0.97048898  0.96606899  1
  N  N1043  1  0.81484215  0.82422733  0.99991030  1
