# generated using pymatgen
data_CuH12C20(NO3)2
_symmetry_space_group_name_H-M   'P 1'
_cell_length_a   20.62111419
_cell_length_b   26.23735633
_cell_length_c   21.11289638
_cell_angle_alpha   90.00000000
_cell_angle_beta   90.00000000
_cell_angle_gamma   90.00000000
_symmetry_Int_Tables_number   1
_chemical_formula_structural   CuH12C20(NO3)2
_chemical_formula_sum   'Cu24 H288 C480 N48 O144'
_cell_volume   11422.99579920
_cell_formula_units_Z   24
loop_
 _symmetry_equiv_pos_site_id
 _symmetry_equiv_pos_as_xyz
  1  'x, y, z'
loop_
 _atom_site_type_symbol
 _atom_site_label
 _atom_site_symmetry_multiplicity
 _atom_site_fract_x
 _atom_site_fract_y
 _atom_site_fract_z
 _atom_site_occupancy
  C  C0  1  0.29539999  0.16559978  0.19141902  1
  C  C1  1  0.33582551  0.16775561  0.13892578  1
  H  H2  1  0.38056260  0.14636571  0.13749075  1
  C  C3  1  0.31936555  0.20487826  0.09196216  1
  H  H4  1  0.24662512  0.10136916  0.21354028  1
  N  N5  1  0.06771888  0.21145995  0.05102033  1
  O  O6  1  0.08128172  0.14990043  0.13688645  1
  C  C7  1  0.06655232  0.16402094  0.08499275  1
  H  H8  1  0.11906007  0.20109305  0.18084217  1
  C  C9  1  0.24146531  0.19620936  0.20254453  1
  H  H10  1  0.06102334  0.06480891  0.10441339  1
  H  H11  1  0.20948292  0.19340076  0.24617804  1
  C  C12  1  0.03400107  0.12341667  0.03953338  1
  C  C13  1  0.03837992  0.07247361  0.05786088  1
  C  C14  1  0.22617720  0.22942880  0.15334420  1
  C  C15  1  0.26745434  0.23641236  0.10090575  1
  H  H16  1  0.00415969  0.19575349  0.21974018  1
  C  C17  1  0.31998421  0.13151248  0.24577889  1
  H  H18  1  0.33968733  0.23864050  0.22151085  1
  C  C19  1  0.01039146  0.03424746  0.02094182  1
  C  C20  1  0.36700012  0.20828600  0.03723572  1
  C  C21  1  0.29521240  0.11504351  0.03309888  1
  H  H22  1  0.26835345  0.15267005  0.04115628  1
  N  N23  1  0.40377926  0.16361963  0.02818693  1
  C  C24  1  0.36401013  0.11870351  0.02448037  1
  C  C25  1  0.26260895  0.06876342  0.03036120  1
  C  C26  1  0.30155739  0.02616200  0.01865970  1
  C  C27  1  0.36833161  0.02838685  0.01277532  1
  H  H28  1  0.20877849  0.06310037  0.03504860  1
  N  N29  1  0.11541810  0.24041295  0.17878730  1
  C  C30  1  0.40305153  0.07421773  0.01765279  1
  H  H31  1  0.45759916  0.07184089  0.02019967  1
  H  H32  1  0.08117366  0.23359162  0.09116429  1
  H  H33  1  0.46752084  0.23624784  0.13409577  1
  H  H34  1  0.38827711  0.03297786  0.24594221  1
  O  O35  1  0.36568443  0.24457471  0.00442144  1
  C  C36  1  0.02026161  0.46993967  0.14601133  1
  H  H37  1  0.43994710  0.41151604  0.11083624  1
  H  H38  1  0.33215013  0.34493559  0.14732796  1
  N  N39  1  0.45063112  0.40901561  0.15888379  1
  C  C40  1  0.48866830  0.45040880  0.18057701  1
  C  C41  1  0.31301524  0.40995827  0.08694908  1
  H  H42  1  0.25462692  0.26599426  0.06489881  1
  C  C43  1  0.17021689  0.26736153  0.15793391  1
  C  C44  1  0.30796529  0.38280302  0.14401155  1
  N  N45  1  0.28303366  0.31880964  0.24509794  1
  C  C46  1  0.03183311  0.42286362  0.04541312  1
  C  C47  1  0.47607165  0.36140842  0.18102809  1
  C  C48  1  0.27773969  0.45574827  0.07666635  1
  C  C49  1  0.35877598  0.39023314  0.03509824  1
  C  C50  1  0.23548592  0.44504620  0.18493589  1
  C  C51  1  0.45407735  0.31804072  0.14668894  1
  C  C52  1  0.47821679  0.27080692  0.16108248  1
  C  C53  1  0.04640430  0.31760665  0.16535288  1
  C  C54  1  0.23832494  0.47079808  0.12545691  1
  H  H55  1  0.04262791  0.48859288  0.18762357  1
  O  O56  1  0.41570896  0.38900824  0.03932401  1
  H  H57  1  0.11478743  0.44705325  0.10147073  1
  H  H58  1  0.28953972  0.30387724  0.20128087  1
  C  C59  1  0.05877144  0.44742116  0.10012506  1
  O  O60  1  0.17635211  0.30785071  0.13310510  1
  H  H61  1  0.28295879  0.47963513  0.03547551  1
  H  H62  1  0.20649145  0.46069136  0.22131123  1
  H  H63  1  0.09214874  0.34071901  0.15405067  1
  C  C64  1  0.05174883  0.26458392  0.18087175  1
  H  H65  1  0.42399129  0.32600356  0.10395063  1
  C  C66  1  0.26971773  0.39976429  0.19359271  1
  H  H67  1  0.10612928  0.40651959  0.22892498  1
  H  H68  1  0.04543962  0.49510428  0.00131940  1
  C  C69  1  0.17503993  0.18593345  0.37821030  1
  H  H70  1  0.17667751  0.22259020  0.40282758  1
  C  C71  1  0.32460076  0.01262027  0.42326696  1
  C  C72  1  0.12068209  0.15314610  0.38632324  1
  C  C73  1  0.22622850  0.16916639  0.34182359  1
  C  C74  1  0.11609489  0.10436254  0.35804365  1
  H  H75  1  0.27266566  0.19081537  0.33524610  1
  N  N76  1  0.33220138  0.02837932  0.35793816  1
  H  H77  1  0.30706838  0.05703370  0.33816812  1
  C  C78  1  0.06882798  0.17210232  0.42643156  1
  C  C79  1  0.16289071  0.09254596  0.31421751  1
  H  H80  1  0.43640447  0.02112016  0.36406086  1
  H  H81  1  0.07279986  0.07790769  0.36754043  1
  C  C82  1  0.21816660  0.12461307  0.30471156  1
  O  O83  1  0.07594121  0.21606381  0.44745913  1
  O  O84  1  0.27699758  0.01874398  0.45104936  1
  H  H85  1  0.15703470  0.05790498  0.28820387  1
  C  C86  1  0.41453893  0.23104104  0.29550365  1
  C  C87  1  0.48604722  0.23808818  0.38947158  1
  H  H88  1  0.18275132  0.01099661  0.46999185  1
  O  O89  1  0.01701096  0.14632680  0.43773408  1
  H  H90  1  0.21516472  0.01714615  0.35417399  1
  O  O91  1  0.37377761  0.12039234  0.26141696  1
  H  H92  1  0.43845313  0.19508166  0.28034999  1
  N  N93  1  0.26185735  0.10269912  0.26017929  1
  C  C94  1  0.02797669  0.47475802  0.34595397  1
  O  O95  1  0.49370926  0.26265821  0.44222812  1
  C  C96  1  0.26042676  0.36868812  0.25347529  1
  C  C97  1  0.49471080  0.44926871  0.38656799  1
  H  H98  1  0.49322999  0.45030848  0.43867564  1
  C  C99  1  0.36593275  0.25623305  0.26193963  1
  H  H100  1  0.15929686  0.47471500  0.38190265  1
  H  H101  1  0.42051173  0.32149790  0.41482523  1
  C  C102  1  0.03361030  0.37846386  0.29452684  1
  H  H103  1  0.03105520  0.34084897  0.27482582  1
  C  C104  1  0.40694855  0.30354202  0.37060130  1
  N  N105  1  0.32916041  0.45005219  0.35043761  1
  C  C106  1  0.48614447  0.45298909  0.25201619  1
  C  C107  1  0.07647473  0.41538088  0.27090717  1
  H  H108  1  0.27911378  0.43555668  0.35341725  1
  H  H109  1  0.38629698  0.42993016  0.26119854  1
  C  C110  1  0.07448259  0.46483267  0.29849860  1
  O  O111  1  0.23786511  0.39188385  0.29674075  1
  C  C112  1  0.43895591  0.43629699  0.35370203  1
  C  C113  1  0.37833280  0.43239711  0.39352024  1
  C  C114  1  0.43590590  0.25758898  0.34853899  1
  O  O115  1  0.37506889  0.42013304  0.44652680  1
  O  O116  1  0.20714046  0.42436365  0.46524173  1
  H  H117  1  0.33577505  0.36439847  0.35350766  1
  C  C118  1  0.35774943  0.32740857  0.33973761  1
  C  C119  1  0.43251217  0.43849836  0.28626745  1
  C  C120  1  0.33634559  0.30334422  0.28160431  1
  C  C121  1  0.20479564  0.46275846  0.49494951  1
  C  C122  1  0.32256094  0.15183640  0.69191481  1
  C  C123  1  0.38020928  0.16446149  0.66025971  1
  C  C124  1  0.39883417  0.13491322  0.61085121  1
  C  C125  1  0.28139657  0.11189103  0.67235103  1
  N  N126  1  0.22283271  0.10036217  0.70186786  1
  C  C127  1  0.29980184  0.08533847  0.61492419  1
  C  C128  1  0.44609927  0.07517760  0.72481965  1
  C  C129  1  0.17159489  0.08338383  0.65862417  1
  H  H130  1  0.26887406  0.05490288  0.59817533  1
  C  C131  1  0.36087016  0.09304011  0.58943907  1
  O  O132  1  0.12303773  0.10293037  0.64098822  1
  Cu  Cu133  1  0.07883176  0.23452089  0.53830985  1
  C  C134  1  0.42032296  0.03185770  0.69796053  1
  H  H135  1  0.11349913  0.03912454  0.55819687  1
  C  C136  1  0.45931797  0.14725437  0.57241661  1
  H  H137  1  0.40934517  0.19718000  0.67376358  1
  H  H138  1  0.37324497  0.07147255  0.54695104  1
  C  C139  1  0.18476264  0.03124368  0.63424593  1
  C  C140  1  0.15121210  0.01645290  0.58080312  1
  H  H141  1  0.02590357  0.24494667  0.67709774  1
  H  H142  1  0.30599031  0.17740607  0.73056004  1
  H  H143  1  0.20789583  0.12860141  0.73399935  1
  O  O144  1  0.48848496  0.19031398  0.58769772  1
  H  H145  1  0.25226127  0.01600343  0.70580897  1
  C  C146  1  0.00595403  0.21131236  0.69981856  1
  H  H147  1  0.37282620  0.01959402  0.71530252  1
  C  C148  1  0.45177636  0.00159941  0.65145823  1
  H  H149  1  0.01347656  0.01409137  0.53365996  1
  Cu  Cu150  1  0.49477317  0.22861470  0.51487807  1
  O  O151  1  0.47592799  0.12187574  0.52945660  1
  C  C152  1  0.10179487  0.38086848  0.55061026  1
  O  O153  1  0.17382922  0.29065541  0.65664299  1
  H  H154  1  0.24603883  0.43690582  0.57708719  1
  H  H155  1  0.41898606  0.37752012  0.58150415  1
  C  C156  1  0.14763391  0.30850613  0.60701343  1
  H  H157  1  0.40172584  0.45680175  0.63624741  1
  C  C158  1  0.49232276  0.45569179  0.69086899  1
  C  C159  1  0.45620860  0.39270505  0.61620137  1
  N  N160  1  0.22859294  0.46955716  0.55574592  1
  O  O161  1  0.49140177  0.29352069  0.56337853  1
  H  H162  1  0.16439079  0.38028418  0.70114028  1
  O  O163  1  0.13370136  0.28408116  0.55767233  1
  H  H164  1  0.10128289  0.46686216  0.70255242  1
  C  C165  1  0.10355008  0.44052581  0.66033355  1
  C  C166  1  0.07124077  0.45710829  0.60524525  1
  C  C167  1  0.07323805  0.42771536  0.54734016  1
  C  C168  1  0.44417604  0.43675136  0.65048832  1
  C  C169  1  0.12417076  0.36094220  0.60868414  1
  Cu  Cu170  1  0.12875151  0.30465087  0.73374400  1
  C  C171  1  0.13271909  0.39388231  0.66187662  1
  H  H172  1  0.05266147  0.44206209  0.50214303  1
  H  H173  1  0.10279710  0.35729791  0.50623413  1
  C  C174  1  0.41785007  0.06796581  0.86844541  1
  C  C175  1  0.36918427  0.10630002  0.88053851  1
  C  C176  1  0.30334813  0.09728633  0.86957152  1
  H  H177  1  0.38499575  0.14204641  0.89989846  1
  C  C178  1  0.15321785  0.16854414  0.90065422  1
  C  C179  1  0.15911286  0.21834456  0.87545639  1
  H  H180  1  0.26919649  0.12861118  0.87459981  1
  H  H181  1  0.16809284  0.13643242  0.87325079  1
  C  C182  1  0.28711141  0.04833120  0.84991130  1
  O  O183  1  0.47937808  0.16061004  0.92126645  1
  O  O184  1  0.17647755  0.07012428  0.83819944  1
  C  C185  1  0.21754522  0.03784409  0.83439392  1
  C  C186  1  0.18210282  0.22385945  0.80882013  1
  O  O187  1  0.19217051  0.18713142  0.77770329  1
  C  C188  1  0.12479677  0.16595300  0.96059860  1
  H  H189  1  0.44363098  0.16429040  0.99699288  1
  C  C190  1  0.39727232  0.01885986  0.85294715  1
  H  H191  1  0.02416838  0.22967184  0.79651413  1
  N  N192  1  0.48740617  0.07832074  0.87430757  1
  C  C193  1  0.33213433  0.00898201  0.83941206  1
  C  C194  1  0.00156322  0.20244053  0.76437888  1
  H  H195  1  0.00698725  0.16675916  0.87715887  1
  H  H196  1  0.11714192  0.12756843  0.98346151  1
  C  C197  1  0.00018813  0.13494166  0.98544594  1
  O  O198  1  0.37558921  0.23484192  0.75279423  1
  C  C199  1  0.11003092  0.21066081  0.99533254  1
  H  H200  1  0.42047058  0.09788630  0.76098720  1
  N  N201  1  0.31727421  0.38196452  0.98434195  1
  C  C202  1  0.49208183  0.49493941  0.94445068  1
  C  C203  1  0.19387027  0.38880696  0.81232072  1
  H  H204  1  0.05437838  0.35872876  0.99198853  1
  C  C205  1  0.30152090  0.32053273  0.90151518  1
  H  H206  1  0.49174247  0.42344019  0.81248873  1
  C  C207  1  0.44305854  0.49941716  0.82514241  1
  C  C208  1  0.48285231  0.45733601  0.84024236  1
  H  H209  1  0.10902132  0.29406127  0.99624820  1
  C  C210  1  0.22912348  0.47623576  0.81892000  1
  C  C211  1  0.07423274  0.36992095  0.81595949  1
  O  O212  1  0.01918728  0.38737902  0.82540596  1
  O  O213  1  0.47300516  0.26558765  0.75940805  1
  C  C214  1  0.20009549  0.47996029  0.94425185  1
  H  H215  1  0.29369007  0.40891533  0.80854824  1
  C  C216  1  0.41098474  0.35732064  0.91347915  1
  C  C217  1  0.13236288  0.41120433  0.98872844  1
  H  H218  1  0.24981433  0.31452525  0.91208727  1
  O  O219  1  0.17876225  0.38506842  0.99347217  1
  H  H220  1  0.23926138  0.45077785  0.93496980  1
  O  O221  1  0.18920061  0.27072683  0.78669624  1
  C  C222  1  0.11124478  0.45916691  0.81938486  1
  H  H223  1  0.20217075  0.34771888  0.81881290  1
  C  C224  1  0.24468356  0.42333354  0.81336259  1
  H  H225  1  0.44416983  0.38127768  0.93999748  1
  C  C226  1  0.39131937  0.29230493  0.83435130  1
  H  H227  1  0.48700595  0.32940421  0.85338158  1
  C  C228  1  0.34401887  0.35474128  0.93332177  1
  C  C229  1  0.14178930  0.46628841  0.97302793  1
  C  C230  1  0.41504219  0.26177775  0.77888909  1
  C  C231  1  0.12359814  0.25952327  0.97032323  1
  H  H232  1  0.29848182  0.26001879  0.82787890  1
  H  H233  1  0.06298245  0.47145171  0.81792700  1
  H  H234  1  0.14500653  0.29902723  0.88365723  1
  C  C235  1  0.32672304  0.28958641  0.85544487  1
  C  C236  1  0.16354148  0.49314528  0.82108501  1
  C  C237  1  0.43558322  0.32530296  0.86549528  1
  N  N238  1  0.06548686  0.39860399  0.99389841  1
  O  O239  1  0.08097991  0.32315742  0.80522435  1
  C  C240  1  0.14380450  0.26381680  0.90897942  1
  C  C241  1  0.12969631  0.40634514  0.81052542  1
  H  H242  1  0.26646273  0.38127053  0.99182042  1
  C  C243  1  0.16110375  0.63174317  0.09826406  1
  C  C244  1  0.22001470  0.60552744  0.11416298  1
  N  N245  1  0.23272548  0.55552276  0.09082034  1
  H  H246  1  0.12668852  0.61476833  0.06553737  1
  C  C247  1  0.26577086  0.62946633  0.15695003  1
  H  H248  1  0.31072386  0.61007282  0.16393470  1
  C  C249  1  0.25356211  0.67667324  0.18283095  1
  H  H250  1  0.27969661  0.54491702  0.08036266  1
  C  C251  1  0.39365592  0.65871082  0.05619868  1
  C  C252  1  0.14866458  0.67637300  0.12925450  1
  C  C253  1  0.19492834  0.70090642  0.16886239  1
  C  C254  1  0.19508759  0.51869436  0.12448711  1
  O  O255  1  0.14556692  0.51935762  0.15247603  1
  H  H256  1  0.10516865  0.69684000  0.11259541  1
  H  H257  1  0.43930206  0.63630661  0.06802384  1
  O  O258  1  0.45976448  0.55983645  0.03492307  1
  C  C259  1  0.37864482  0.70356188  0.08533592  1
  N  N260  1  0.04155236  0.57821281  0.04742863  1
  H  H261  1  0.40610430  0.71636411  0.12612340  1
  C  C262  1  0.32348706  0.73268308  0.06467336  1
  H  H263  1  0.29594961  0.69583547  0.20963889  1
  C  C264  1  0.01974307  0.61364836  0.09195601  1
  H  H265  1  0.06539943  0.54621480  0.06659035  1
  C  C266  1  0.28277109  0.70856679  0.01969031  1
  H  H267  1  0.13155047  0.50396817  0.23143569  1
  H  H268  1  0.01252121  0.55585271  0.16936239  1
  C  C269  1  0.01135919  0.59813964  0.15601675  1
  C  C270  1  0.01227971  0.66646218  0.07413637  1
  H  H271  1  0.23882643  0.72990830  0.00320717  1
  H  H272  1  0.01980113  0.67616486  0.02357970  1
  C  C273  1  0.18273844  0.74688465  0.20255134  1
  C  C274  1  0.35308489  0.63650269  0.00782001  1
  O  O275  1  0.21504166  0.96738629  0.02301212  1
  H  H276  1  0.01664501  0.88091586  0.11678231  1
  O  O277  1  0.16860646  0.90133382  0.18311591  1
  O  O278  1  0.13037657  0.77076783  0.19342392  1
  C  C279  1  0.41607547  0.85126221  0.23005999  1
  C  C280  1  0.01951979  0.98065776  0.04919462  1
  O  O281  1  0.08005399  0.86441409  0.21857201  1
  Cu  Cu282  1  0.43694753  0.83354770  0.08827513  1
  Cu  Cu283  1  0.27979499  0.87176583  0.03365924  1
  C  C284  1  0.31273754  0.78354100  0.08703131  1
  O  O285  1  0.05984189  0.97102718  0.08783539  1
  O  O286  1  0.35695125  0.80782544  0.11553383  1
  O  O287  1  0.41890526  0.81027160  0.00312826  1
  C  C288  1  0.12516879  0.89860579  0.22221649  1
  O  O289  1  0.26373763  0.80812224  0.06644349  1
  C  C290  1  0.40202769  0.95027502  0.23228967  1
  C  C291  1  0.27140867  0.97413057  0.01950791  1
  O  O292  1  0.44806725  0.85996416  0.17687932  1
  H  H293  1  0.42688478  0.94472077  0.18733803  1
  O  O294  1  0.48273450  0.93888543  0.03760225  1
  O  O295  1  0.22473777  0.76661608  0.24172519  1
  O  O296  1  0.40983699  0.80940992  0.24900151  1
  H  H297  1  0.39813421  0.99161418  0.00841614  1
  O  O298  1  0.31171292  0.93366941  0.01484620  1
  C  C299  1  0.39202299  0.58657230  0.34591915  1
  C  C300  1  0.38991233  0.53343047  0.35088507  1
  C  C301  1  0.33395122  0.61197508  0.33153131  1
  H  H302  1  0.08964330  0.62732110  0.40037676  1
  C  C303  1  0.11774175  0.59542974  0.41832782  1
  C  C304  1  0.33180046  0.66662269  0.32624727  1
  C  C305  1  0.27735435  0.58257960  0.31803176  1
  O  O306  1  0.27636765  0.68647611  0.31761727  1
  C  C307  1  0.27480476  0.52911551  0.32158928  1
  H  H308  1  0.37265762  0.58129312  0.45815729  1
  H  H309  1  0.43655323  0.61041796  0.35366426  1
  H  H310  1  0.23484538  0.60654426  0.30676836  1
  C  C311  1  0.11370191  0.55214810  0.30891567  1
  O  O312  1  0.37996084  0.69675155  0.32488425  1
  H  H313  1  0.43484874  0.51352521  0.36229333  1
  C  C314  1  0.12745198  0.55358399  0.37921776  1
  O  O315  1  0.09933973  0.59141682  0.28625850  1
  C  C316  1  0.13583897  0.59767327  0.48232631  1
  C  C317  1  0.17346113  0.51301347  0.47131493  1
  C  C318  1  0.15235364  0.50932882  0.40913400  1
  Cu  Cu319  1  0.41475425  0.73747505  0.38941949  1
  C  C320  1  0.33217726  0.50446012  0.34227395  1
  H  H321  1  0.23302852  0.50691386  0.30570520  1
  N  N322  1  0.11942374  0.50329864  0.27969745  1
  H  H323  1  0.29610392  0.51236956  0.45697804  1
  O  O324  1  0.10316698  0.67959672  0.49363411  1
  H  H325  1  0.03319053  0.51487766  0.36346030  1
  O  O326  1  0.46466235  0.76952042  0.45330791  1
  C  C327  1  0.38969702  0.99096702  0.44717831  1
  O  O328  1  0.25298965  0.75096511  0.41338932  1
  C  C329  1  0.44375081  0.99827054  0.40778655  1
  Cu  Cu330  1  0.23775992  0.75483838  0.32650359  1
  C  C331  1  0.06980751  0.93002420  0.32018538  1
  O  O332  1  0.35054680  0.78441081  0.40788133  1
  C  C333  1  0.29753354  0.77682051  0.43762954  1
  C  C334  1  0.13336732  0.97848178  0.39319704  1
  C  C335  1  0.38071995  0.99321133  0.26282266  1
  C  C336  1  0.07415316  0.95117562  0.37957809  1
  C  C337  1  0.34096707  0.98431073  0.31876615  1
  H  H338  1  0.21642950  0.96243256  0.25038550  1
  H  H339  1  0.03963672  0.94474844  0.41688103  1
  C  C340  1  0.17883447  0.96207265  0.28672947  1
  C  C341  1  0.03125000  0.80170074  0.38681028  1
  C  C342  1  0.17996642  0.98758600  0.34364289  1
  C  C343  1  0.32580761  0.93492769  0.34078398  1
  H  H344  1  0.30141774  0.92874808  0.38641917  1
  C  C345  1  0.12397294  0.93272963  0.27801702  1
  H  H346  1  0.03092208  0.90258051  0.30618278  1
  O  O347  1  0.07723180  0.77548319  0.39659077  1
  C  C348  1  0.39111416  0.90032508  0.25812781  1
  O  O349  1  0.02600484  0.82365186  0.32929938  1
  C  C350  1  0.35292209  0.89199087  0.31246036  1
  H  H351  1  0.35410876  0.85175411  0.33496542  1
  N  N352  1  0.14045411  0.99224266  0.45709123  1
  Cu  Cu353  1  0.07734703  0.79742255  0.25937846  1
  H  H354  1  0.38467393  0.83193628  0.49732890  1
  O  O355  1  0.11503988  0.90482201  0.48939717  1
  C  C356  1  0.13804497  0.94601876  0.49626784  1
  C  C357  1  0.28598752  0.79927328  0.49853755  1
  C  C358  1  0.37449570  0.58849538  0.56028290  1
  C  C359  1  0.30355758  0.69969200  0.57516408  1
  C  C360  1  0.19488610  0.69397771  0.66275218  1
  C  C361  1  0.30324213  0.72055071  0.63607172  1
  C  C362  1  0.42718771  0.62735391  0.56410269  1
  H  H363  1  0.15477873  0.68476431  0.69953054  1
  C  C364  1  0.25061539  0.71983685  0.67984930  1
  C  C365  1  0.34782444  0.56863358  0.61732813  1
  H  H366  1  0.36943086  0.58114953  0.66373726  1
  O  O367  1  0.44033061  0.64612716  0.61641158  1
  C  C368  1  0.19469603  0.66882177  0.60201130  1
  H  H369  1  0.10139347  0.65437527  0.61542624  1
  H  H370  1  0.06737474  0.71114197  0.56077693  1
  H  H371  1  0.18441315  0.55158637  0.55993151  1
  N  N372  1  0.13724568  0.63799256  0.58813487  1
  C  C373  1  0.30181164  0.53053012  0.61474011  1
  H  H374  1  0.34418568  0.70466744  0.53989892  1
  C  C375  1  0.24670920  0.67446426  0.55826311  1
  H  H376  1  0.04900060  0.53453547  0.63020285  1
  H  H377  1  0.05509433  0.70964817  0.71743775  1
  C  C378  1  0.12509029  0.64404031  0.52096451  1
  C  C379  1  0.27951116  0.50920305  0.55627359  1
  H  H380  1  0.25739638  0.73670848  0.72673676  1
  H  H381  1  0.27981908  0.52000332  0.65869067  1
  N  N382  1  0.03641655  0.72538823  0.59574985  1
  O  O383  1  0.41711824  0.74859293  0.62821665  1
  C  C384  1  0.36401020  0.74430490  0.65886096  1
  O  O385  1  0.05006315  0.55777066  0.70536364  1
  H  H386  1  0.14757105  0.58852045  0.73575094  1
  H  H387  1  0.00347155  0.58848056  0.63404693  1
  C  C388  1  0.06814584  0.74807883  0.70038881  1
  C  C389  1  0.16640204  0.55487225  0.50981022  1
  H  H390  1  0.24081994  0.66244982  0.50638915  1
  N  N391  1  0.03226789  0.50258710  0.60112304  1
  O  O392  1  0.45478540  0.63764059  0.51242133  1
  C  C393  1  0.30937948  0.52753732  0.50286298  1
  C  C394  1  0.35229156  0.56815097  0.50387879  1
  O  O395  1  0.36581019  0.52237687  0.74113170  1
  N  N396  1  0.47460263  0.50387182  0.71938581  1
  Cu  Cu397  1  0.49378739  0.70905279  0.63452700  1
  C  C398  1  0.10366848  0.77887424  0.74230121  1
  H  H399  1  0.06879262  0.82752768  0.56905099  1
  C  C400  1  0.22916992  0.99892409  0.66503156  1
  N  N401  1  0.26066122  0.86162615  0.68004629  1
  C  C402  1  0.16962393  0.96841475  0.55698045  1
  O  O403  1  0.49319255  0.89293454  0.61120242  1
  H  H404  1  0.21423932  0.89753250  0.56659831  1
  H  H405  1  0.18242077  0.79852468  0.62447886  1
  C  C406  1  0.07931480  0.81440957  0.61613408  1
  C  C407  1  0.23822540  0.94889892  0.64462987  1
  C  C408  1  0.11866433  0.82781589  0.72065245  1
  H  H409  1  0.49038659  0.92785231  0.71856156  1
  H  H410  1  0.19000298  0.76630037  0.51450196  1
  C  C411  1  0.27242669  0.84074367  0.61671104  1
  C  C412  1  0.33776414  0.83060403  0.52410969  1
  H  H413  1  0.12423346  0.88429527  0.64156737  1
  C  C414  1  0.06061345  0.76471513  0.63805579  1
  H  H415  1  0.38807243  0.94204928  0.65734215  1
  C  C416  1  0.45906216  0.94875388  0.52348614  1
  C  C417  1  0.33149433  0.85164294  0.58318443  1
  H  H418  1  0.35355967  0.95900471  0.53620358  1
  C  C419  1  0.46239093  0.92637761  0.59072562  1
  C  C420  1  0.22381154  0.80923093  0.59325866  1
  O  O421  1  0.31444884  0.93226809  0.72126158  1
  H  H422  1  0.36985816  0.87503351  0.60602672  1
  O  O423  1  0.36384427  0.76540870  0.71343046  1
  H  H424  1  0.27590557  0.83714444  0.71580782  1
  C  C425  1  0.21020164  0.93410532  0.58733828  1
  N  N426  1  0.41872234  0.95848630  0.62483030  1
  C  C427  1  0.10748356  0.84747002  0.65887805  1
  C  C428  1  0.39752263  0.96665382  0.50563037  1
  C  C429  1  0.22784480  0.79026693  0.53239883  1
  C  C430  1  0.27818222  0.91242351  0.68409911  1
  H  H431  1  0.02624326  0.86511745  0.74510774  1
  H  H432  1  0.03212267  0.76839883  0.50068754  1
  H  H433  1  0.17164260  0.60898847  0.91965864  1
  C  C434  1  0.42394481  0.53682626  0.86638133  1
  O  O435  1  0.27986351  0.59262753  0.87529570  1
  C  C436  1  0.16362206  0.56988083  0.93778819  1
  C  C437  1  0.21064903  0.68415813  0.82602390  1
  C  C438  1  0.09378899  0.63956441  0.80041662  1
  H  H439  1  0.39573630  0.57139001  0.85795639  1
  C  C440  1  0.09386744  0.68227523  0.84225199  1
  H  H441  1  0.04888443  0.69739510  0.86073724  1
  C  C442  1  0.15400004  0.70183313  0.85520686  1
  C  C443  1  0.27567791  0.70685902  0.83632491  1
  O  O444  1  0.43947142  0.69979699  0.84935954  1
  C  C445  1  0.26130796  0.54868611  0.87942559  1
  C  C446  1  0.10525035  0.55357444  0.96640967  1
  C  C447  1  0.44672722  0.53232196  0.93022228  1
  O  O448  1  0.32052000  0.69559549  0.79483184  1
  C  C449  1  0.20823056  0.53106160  0.92622022  1
  H  H450  1  0.14633877  0.53230010  0.83001678  1
  O  O451  1  0.04656823  0.63277299  0.95438760  1
  H  H452  1  0.34379403  0.58664377  0.93076989  1
  N  N453  1  0.03021374  0.62348728  0.78399373  1
  H  H454  1  0.26238479  0.64457062  0.95649212  1
  C  C455  1  0.21021269  0.64264744  0.78381066  1
  N  N456  1  0.37100923  0.59135807  0.97263421  1
  Cu  Cu457  1  0.40199373  0.73555009  0.78414353  1
  O  O458  1  0.48919379  0.64034215  0.79506086  1
  C  C459  1  0.15173127  0.61921557  0.77063721  1
  C  C460  1  0.48327793  0.66156098  0.84637260  1
  C  C461  1  0.05855882  0.59506873  0.98525888  1
  C  C462  1  0.09299278  0.50279438  0.98241628  1
  H  H463  1  0.46713064  0.70806918  0.95390645  1
  C  C464  1  0.42840896  0.56526975  0.98802790  1
  H  H465  1  0.16123099  0.73488329  0.88938185  1
  H  H466  1  0.25650106  0.62527646  0.76490138  1
  H  H467  1  0.00096783  0.58711847  0.88820401  1
  C  C468  1  0.41729896  0.50541008  0.75682382  1
  C  C469  1  0.29582517  0.66232653  0.99136149  1
  O  O470  1  0.27980577  0.73883988  0.87485405  1
  H  H471  1  0.31930349  0.51175725  0.81477149  1
  N  N472  1  0.27927571  0.50751197  0.84525241  1
  C  C473  1  0.02935823  0.57431295  0.75399829  1
  O  O474  1  0.32647464  0.84079140  0.96267351  1
  O  O475  1  0.47963482  0.77543458  0.77169854  1
  C  C476  1  0.49100579  0.85334097  0.90882473  1
  H  H477  1  0.39132706  0.92407839  0.77201900  1
  C  C478  1  0.48854802  0.89987219  0.80392824  1
  H  H479  1  0.31315278  0.97322634  0.82216211  1
  Cu  Cu480  1  0.12070093  0.96517828  0.80972747  1
  O  O481  1  0.15281263  0.84794089  0.82483773  1
  H  H482  1  0.43179360  0.98953591  0.83634859  1
  O  O483  1  0.03708950  0.94661992  0.80024851  1
  O  O484  1  0.20315337  0.99277561  0.81351636  1
  C  C485  1  0.38605337  0.83503364  0.96125286  1
  O  O486  1  0.14522128  0.91042642  0.75351974  1
  C  C487  1  0.42332003  0.85675777  0.90939620  1
  C  C488  1  0.38753401  0.88074587  0.85857823  1
  H  H489  1  0.33503442  0.87571762  0.85767589  1
  H  H490  1  0.11707617  0.76778619  0.79242890  1
  C  C491  1  0.41803709  0.90217647  0.80708036  1
  C  C492  1  0.14121214  0.86243534  0.77221293  1
  C  C493  1  0.74497792  0.01990579  0.06914414  1
  C  C494  1  0.80436751  0.03493059  0.09499290  1
  C  C495  1  0.85200483  0.06258818  0.06129621  1
  H  H496  1  0.89414756  0.07903739  0.08675505  1
  C  C497  1  0.81469227  0.03243057  0.16444065  1
  O  O498  1  0.86153317  0.05417048  0.19309034  1
  N  N499  1  0.76230909  0.17442563  0.04698515  1
  H  H500  1  0.88108253  0.17975378  0.08249552  1
  H  H501  1  0.76624931  0.17286528  0.09426193  1
  C  C502  1  0.55374500  0.21246884  0.21853076  1
  O  O503  1  0.77328654  0.00679658  0.19364976  1
  C  C504  1  0.87104612  0.20482827  0.04211080  1
  H  H505  1  0.70413420  0.00881867  0.09856055  1
  C  C506  1  0.99774378  0.23611892  0.20335995  1
  C  C507  1  0.73719896  0.02642437  0.00356574  1
  C  C508  1  0.80785281  0.20453523  0.01512533  1
  H  H509  1  0.89874943  0.24373661  0.23557791  1
  C  C510  1  0.69509292  0.18694840  0.03110863  1
  C  C511  1  0.91183483  0.24476476  0.02757302  1
  O  O512  1  0.66039215  0.21763590  0.05536207  1
  H  H513  1  0.95515680  0.24738467  0.05521157  1
  O  O514  1  0.53621266  0.17865902  0.18533092  1
  H  H515  1  0.73719635  0.49926534  0.09706901  1
  C  C516  1  0.52513757  0.26440190  0.20833962  1
  C  C517  1  0.95206037  0.46710958  0.13839457  1
  O  O518  1  0.51893591  0.47960294  0.14969643  1
  C  C519  1  0.98569581  0.34130065  0.16985587  1
  H  H520  1  0.55934042  0.38776545  0.00403287  1
  C  C521  1  0.93345986  0.31467487  0.19915891  1
  H  H522  1  0.97953975  0.38223127  0.15467198  1
  C  C523  1  0.70361845  0.47251135  0.07641990  1
  C  C524  1  0.90858930  0.48865504  0.18651602  1
  C  C525  1  0.92337164  0.44016762  0.08695642  1
  C  C526  1  0.93955163  0.26339392  0.21356660  1
  O  O527  1  0.84433364  0.48556828  0.18225477  1
  O  O528  1  0.64790811  0.40451245  0.21915124  1
  C  C529  1  0.68816700  0.47581732  0.01293031  1
  C  C530  1  0.52162274  0.35304663  0.23182728  1
  C  C531  1  0.66407627  0.43887912  0.11448971  1
  H  H532  1  0.86824077  0.43758442  0.08347824  1
  O  O533  1  0.87442547  0.39033810  0.21024803  1
  H  H534  1  0.58893436  0.38298939  0.12202171  1
  C  C535  1  0.96335211  0.42170361  0.03964744  1
  O  O536  1  0.72078170  0.46272988  0.20622376  1
  Cu  Cu537  1  0.80121490  0.42861060  0.20723832  1
  C  C538  1  0.54932054  0.30634525  0.24346089  1
  C  C539  1  0.60067911  0.41106600  0.02504084  1
  C  C540  1  0.61709691  0.40681804  0.08916253  1
  C  C541  1  0.67436779  0.43303250  0.18393123  1
  C  C542  1  0.87527834  0.34226403  0.21994690  1
  C  C543  1  0.78718768  0.07955934  0.39086708  1
  C  C544  1  0.73937231  0.07161053  0.34340602  1
  C  C545  1  0.85199670  0.09911345  0.37726739  1
  O  O546  1  0.89195686  0.11058590  0.41982081  1
  C  C547  1  0.68173286  0.05088647  0.35766207  1
  C  C548  1  0.66955654  0.03768901  0.42247949  1
  O  O549  1  0.86506463  0.10275190  0.31859008  1
  H  H550  1  0.75001696  0.08472881  0.29522006  1
  H  H551  1  0.63927864  0.04181958  0.32276424  1
  H  H552  1  0.76976598  0.16571933  0.42122300  1
  O  O553  1  0.68554545  0.21855325  0.37315838  1
  Cu  Cu554  1  0.60139386  0.20762777  0.34999377  1
  N  N555  1  0.61142309  0.01485743  0.43865514  1
  C  C556  1  0.77655597  0.06876308  0.45547903  1
  Cu  Cu557  1  0.93303993  0.17185762  0.46139689  1
  C  C558  1  0.71625089  0.05037619  0.47075051  1
  C  C559  1  0.76095118  0.18132872  0.46804048  1
  H  H560  1  0.67836885  0.13278463  0.48709983  1
  Cu  Cu561  1  0.88462439  0.03941971  0.27185668  1
  C  C562  1  0.56043961  0.01103359  0.39343973  1
  O  O563  1  0.85892565  0.23789065  0.39898199  1
  O  O564  1  0.51737852  0.19908282  0.37658346  1
  O  O565  1  0.55083390  0.02395107  0.34020079  1
  C  C566  1  0.79824904  0.22280735  0.49452341  1
  H  H567  1  0.60080933  0.00159091  0.48223263  1
  H  H568  1  0.98831651  0.00528991  0.42216686  1
  C  C569  1  0.84925820  0.24752457  0.45861589  1
  H  H570  1  0.81354095  0.07530450  0.49173072  1
  O  O571  1  0.60055377  0.20741558  0.26029080  1
  O  O572  1  0.75840467  0.25991472  0.31836813  1
  C  C573  1  0.71006768  0.25948900  0.35424054  1
  C  C574  1  0.69434285  0.35154895  0.33129256  1
  H  H575  1  0.64050630  0.27866649  0.45527963  1
  C  C576  1  0.61187242  0.48683225  0.37686145  1
  H  H577  1  0.54095401  0.38473058  0.25678025  1
  O  O578  1  0.87611439  0.28682728  0.48208114  1
  C  C579  1  0.77625098  0.44008222  0.48750490  1
  C  C580  1  0.98583189  0.38990176  0.33945576  1
  H  H581  1  0.82758015  0.43901779  0.37293931  1
  H  H582  1  0.71886200  0.34955802  0.28280772  1
  C  C583  1  0.54831691  0.46857078  0.34858411  1
  N  N584  1  0.61935936  0.45330065  0.43270301  1
  C  C585  1  0.54264793  0.46911248  0.28318443  1
  H  H586  1  0.58111190  0.48192478  0.25422337  1
  C  C587  1  0.98463995  0.43955812  0.36607694  1
  C  C588  1  0.80728226  0.48579722  0.45707611  1
  C  C589  1  0.83456329  0.47751635  0.39675627  1
  H  H590  1  0.65902785  0.47664394  0.44992269  1
  C  C591  1  0.65077215  0.31405985  0.42917020  1
  C  C592  1  0.67056584  0.39843588  0.34848378  1
  C  C593  1  0.68459787  0.31003831  0.37285876  1
  O  O594  1  0.90472783  0.37096905  0.41382357  1
  H  H595  1  0.60904655  0.36725112  0.49793316  1
  H  H596  1  0.67965777  0.42986308  0.31255957  1
  H  H597  1  0.58614758  0.30088359  0.28094711  1
  O  O598  1  0.78337713  0.39920939  0.44952382  1
  Cu  Cu599  1  0.83885104  0.34388838  0.46394888  1
  C  C600  1  0.93993827  0.35499746  0.36859735  1
  C  C601  1  0.63860542  0.40442635  0.40909510  1
  C  C602  1  0.62898441  0.36159141  0.45021954  1
  H  H603  1  0.94522464  0.45038186  0.40138671  1
  Cu  Cu604  1  0.84796300  0.28163120  0.32584566  1
  O  O605  1  0.92782112  0.31349901  0.33952149  1
  O  O606  1  0.83088899  0.32320378  0.25210291  1
  C  C607  1  0.79601072  0.16314639  0.67388080  1
  H  H608  1  0.79353425  0.14500447  0.62498986  1
  C  C609  1  0.68842936  0.02337590  0.66961668  1
  C  C610  1  0.94178165  0.13251993  0.67923868  1
  H  H611  1  0.91950320  0.10635487  0.64747749  1
  C  C612  1  0.72410337  0.07332799  0.65401819  1
  O  O613  1  0.73240049  0.08848137  0.60128442  1
  C  C614  1  0.97451902  0.17691963  0.65787260  1
  C  C615  1  0.82272068  0.21156479  0.68507213  1
  N  N616  1  0.63212477  0.18680017  0.58576140  1
  O  O617  1  0.94109170  0.16003257  0.55183555  1
  C  C618  1  0.69205342  0.19428260  0.56132419  1
  O  O619  1  0.58191878  0.15583106  0.69953444  1
  H  H620  1  0.58702123  0.07798991  0.63298494  1
  H  H621  1  0.61116205  0.15686247  0.56200121  1
  C  C622  1  0.77738519  0.13329419  0.72645425  1
  N  N623  1  0.74649979  0.08644499  0.71597116  1
  C  C624  1  0.96679997  0.18918031  0.59068705  1
  Cu  Cu625  1  0.58398491  0.22359024  0.65894053  1
  C  C626  1  0.54051741  0.06341242  0.65259078  1
  H  H627  1  0.84477226  0.23688044  0.64697078  1
  H  H628  1  0.70650930  0.04114119  0.52271862  1
  O  O629  1  0.88481264  0.02521325  0.70780119  1
  C  C630  1  0.64294174  0.01754685  0.71751756  1
  C  C631  1  0.53163720  0.13767928  0.72506924  1
  C  C632  1  0.51067959  0.02044040  0.62560945  1
  C  C633  1  0.83557800  0.22733106  0.74617977  1
  H  H634  1  0.53354384  0.00138384  0.58488625  1
  C  C635  1  0.73509486  0.23316947  0.58568881  1
  O  O636  1  0.65066352  0.24449919  0.71873734  1
  O  O637  1  0.99258431  0.23139215  0.57402248  1
  C  C638  1  0.94179950  0.12308048  0.74333122  1
  C  C639  1  0.78660012  0.24925379  0.55086443  1
  C  C640  1  0.50723708  0.09017840  0.69953257  1
  H  H641  1  0.62621602  0.05176955  0.74487157  1
  C  C642  1  0.70999919  0.16510714  0.50287594  1
  H  H643  1  0.96432935  0.49455450  0.71673494  1
  H  H644  1  0.72188639  0.25079557  0.63157801  1
  C  C645  1  0.55763737  0.37922993  0.67497152  1
  O  O646  1  0.89348443  0.42338590  0.71353893  1
  C  C647  1  0.52897128  0.31340460  0.60187722  1
  O  O648  1  0.87988869  0.30171284  0.70582789  1
  C  C649  1  0.77090008  0.36757264  0.72302211  1
  H  H650  1  0.74070580  0.29419109  0.68057256  1
  C  C651  1  0.54941605  0.42687805  0.70480024  1
  H  H652  1  0.65904641  0.47544083  0.70682185  1
  H  H653  1  0.80631862  0.38094614  0.68737750  1
  C  C654  1  0.73300790  0.32581736  0.71635323  1
  O  O655  1  0.57932805  0.28935982  0.61946137  1
  C  C656  1  0.51020758  0.36261504  0.63139300  1
  H  H657  1  0.81595612  0.28105267  0.57568395  1
  O  O658  1  0.75929961  0.43476375  0.54032362  1
  H  H659  1  0.59990272  0.35730649  0.68509182  1
  H  H660  1  0.58230884  0.43812272  0.74284509  1
  O  O661  1  0.97979610  0.48434891  0.50367351  1
  O  O662  1  0.90260117  0.07513049  0.86600378  1
  C  C663  1  0.94082042  0.10673854  0.88411500  1
  C  C664  1  0.62183214  0.08932489  0.88148673  1
  H  H665  1  0.60576083  0.06571412  0.84224874  1
  C  C666  1  0.57941842  0.12294929  0.91100070  1
  H  H667  1  0.77600025  0.12631122  0.83222170  1
  H  H668  1  0.83554858  0.03832124  0.88161085  1
  C  C669  1  0.68750523  0.08729311  0.90132068  1
  C  C670  1  0.73476246  0.05044243  0.87003248  1
  N  N671  1  0.79098129  0.05429551  0.90205255  1
  C  C672  1  0.60288474  0.15608373  0.95745598  1
  C  C673  1  0.70916310  0.12037651  0.94929683  1
  C  C674  1  0.78908821  0.15147043  0.79042089  1
  C  C675  1  0.82392634  0.19504086  0.79951259  1
  C  C676  1  0.66797144  0.15534634  0.97768621  1
  H  H677  1  0.75808321  0.12337414  0.96464689  1
  H  H678  1  0.83717358  0.20801245  0.84835880  1
  H  H679  1  0.91691038  0.08554233  0.75664328  1
  H  H680  1  0.57128054  0.18454665  0.97836975  1
  O  O681  1  0.72232028  0.02715632  0.82177436  1
  C  C682  1  0.79034875  0.04672149  0.96897505  1
  H  H683  1  0.51684190  0.05171787  0.85518033  1
  C  C684  1  0.97469005  0.09657000  0.94586948  1
  H  H685  1  0.96286112  0.01684509  0.92999186  1
  C  C686  1  0.97977766  0.04559713  0.96503136  1
  C  C687  1  0.96931426  0.15770190  0.78918380  1
  H  H688  1  0.73180302  0.06314541  0.75399973  1
  Cu  Cu689  1  0.54488820  0.21994306  0.78535707  1
  H  H690  1  0.69375933  0.01123658  0.98019061  1
  H  H691  1  0.88365317  0.08961046  0.97039874  1
  N  N692  1  0.96585355  0.15155210  0.85571936  1
  C  C693  1  0.79140027  0.23580120  0.96152331  1
  H  H694  1  0.99386492  0.17547127  0.97260268  1
  H  H695  1  0.74253911  0.23246823  0.94373050  1
  C  C696  1  0.50763514  0.12417364  0.90103328  1
  O  O697  1  0.50077139  0.16162877  0.76729266  1
  C  C698  1  0.84892011  0.06635482  0.99585433  1
  C  C699  1  0.88351931  0.49806619  0.85741343  1
  C  C700  1  0.63923287  0.27703917  0.76215636  1
  C  C701  1  0.70861641  0.40148794  0.81650325  1
  N  N702  1  0.61687615  0.44830156  0.92129990  1
  C  C703  1  0.63576825  0.44638308  0.98721726  1
  H  H704  1  0.84312060  0.48105153  0.88169892  1
  H  H705  1  0.78770586  0.47623168  0.80676290  1
  C  C706  1  0.86629553  0.44340625  0.75641227  1
  C  C707  1  0.50981182  0.45653184  0.90162086  1
  H  H708  1  0.70196587  0.42984477  0.85617137  1
  H  H709  1  0.62793970  0.35320652  0.84287605  1
  C  C710  1  0.68310129  0.32079163  0.76320546  1
  O  O711  1  0.55633371  0.37214684  0.89860524  1
  O  O712  1  0.98845686  0.32177295  0.98394265  1
  C  C713  1  0.56224626  0.41624028  0.90816323  1
  O  O714  1  0.59539618  0.27139804  0.80245731  1
  C  C715  1  0.67019406  0.35838776  0.80841354  1
  H  H716  1  0.60395614  0.48401647  0.91417456  1
  C  C717  1  0.75989728  0.40333102  0.77240916  1
  C  C718  1  0.93986630  0.31587272  0.95367462  1
  C  C719  1  0.89426416  0.27705412  0.97696023  1
  N  N720  1  0.80032382  0.44798824  0.77557016  1
  H  H721  1  0.82544477  0.29777133  0.90036345  1
  O  O722  1  0.92412485  0.34661505  0.90738924  1
  O  O723  1  0.87736002  0.29758098  0.81059469  1
  Cu  Cu724  1  0.94774640  0.34334386  0.82201866  1
  C  C725  1  0.90061619  0.48336392  0.79618312  1
  C  C726  1  0.83482688  0.27087876  0.94204631  1
  H  H727  1  0.66559455  0.48371157  0.84444911  1
  H  H728  1  0.94377528  0.40643899  0.99656117  1
  H  H729  1  0.50916387  0.49206895  0.99342659  1
  C  C730  1  0.86864331  0.27849519  0.75299788  1
  C  C731  1  0.83735310  0.69022720  0.08151314  1
  C  C732  1  0.86929528  0.61489580  0.02619808  1
  C  C733  1  0.85199231  0.66716676  0.02640658  1
  C  C734  1  0.83971862  0.66469105  0.14081964  1
  C  C735  1  0.87317687  0.58815987  0.08586545  1
  C  C736  1  0.85697933  0.61223528  0.14414885  1
  H  H737  1  0.85952031  0.59270045  0.19305219  1
  C  C738  1  0.61457448  0.66065590  0.11523475  1
  C  C739  1  0.83703182  0.69411373  0.19805990  1
  O  O740  1  0.58519736  0.65546413  0.16378130  1
  C  C741  1  0.64971026  0.70934232  0.09542791  1
  H  H742  1  0.88346222  0.54677095  0.08151041  1
  H  H743  1  0.51730820  0.68511325  0.06184218  1
  H  H744  1  0.61656349  0.58483517  0.08338224  1
  C  C745  1  0.68595011  0.71328719  0.04039352  1
  N  N746  1  0.62534593  0.62177532  0.07008660  1
  C  C747  1  0.98477990  0.72615967  0.22864999  1
  O  O748  1  0.92936974  0.50930735  0.23295364  1
  C  C749  1  0.53134640  0.66433279  0.01568061  1
  C  C750  1  0.58430460  0.62919252  0.01497372  1
  H  H751  1  0.82450572  0.73121988  0.08246259  1
  O  O752  1  0.84812895  0.67223755  0.24986788  1
  H  H753  1  0.99960658  0.74374533  0.10371311  1
  H  H754  1  0.68838040  0.67788725  0.01218895  1
  O  O755  1  0.82388288  0.74232719  0.20003293  1
  H  H756  1  0.60609295  0.74844201  0.17465833  1
  C  C757  1  0.99468174  0.63641825  0.19876508  1
  C  C758  1  0.99077190  0.68702146  0.17947816  1
  C  C759  1  0.99939763  0.70465727  0.11675756  1
  H  H760  1  0.98615250  0.62782397  0.24980875  1
  C  C761  1  0.67264473  0.79642887  0.11050367  1
  O  O762  1  0.51621323  0.86313722  0.06240536  1
  C  C763  1  0.86785514  0.93895111  0.07761829  1
  C  C764  1  0.71331030  0.80186186  0.05610207  1
  H  H765  1  0.84210666  0.96396532  0.04263282  1
  N  N766  1  0.96935374  0.94542165  0.02395098  1
  O  O767  1  0.99669929  0.77279151  0.22186022  1
  O  O768  1  0.65379442  0.87723638  0.18071927  1
  H  H769  1  0.61631963  0.83774457  0.01294874  1
  C  C770  1  0.63929620  0.75047673  0.13210822  1
  C  C771  1  0.71558812  0.75842839  0.01966443  1
  H  H772  1  0.94163807  0.84824820  0.20473676  1
  H  H773  1  0.73617295  0.83648729  0.03836917  1
  C  C774  1  0.93562000  0.92553016  0.07651610  1
  C  C775  1  0.65960852  0.84090456  0.15022183  1
  C  C776  1  0.96527337  0.89161102  0.12009005  1
  C  C777  1  0.92606673  0.87366506  0.16951696  1
  C  C778  1  0.86067327  0.89064836  0.17056872  1
  C  C779  1  0.83007842  0.92351106  0.12735013  1
  H  H780  1  0.77792300  0.93412670  0.13358392  1
  C  C781  1  0.52486522  0.90717062  0.03715651  1
  C  C782  1  0.82515947  0.87896230  0.22892046  1
  O  O783  1  0.78206879  0.90922520  0.24624476  1
  O  O784  1  0.69996349  0.70494008  0.33922067  1
  C  C785  1  0.75567116  0.69994334  0.43548689  1
  C  C786  1  0.74222914  0.72166779  0.37107877  1
  O  O787  1  0.90774510  0.69415050  0.39545192  1
  Cu  Cu788  1  0.88761915  0.70911778  0.31619923  1
  H  H789  1  0.69144728  0.63639570  0.42080409  1
  C  C790  1  0.92246031  0.64827679  0.40265435  1
  N  N791  1  0.91462974  0.60529455  0.36474866  1
  C  C792  1  0.87428514  0.56501775  0.39237704  1
  H  H793  1  0.89518541  0.61097815  0.31870836  1
  C  C794  1  0.72406015  0.65386208  0.45613205  1
  C  C795  1  0.84283151  0.57229876  0.45035695  1
  O  O796  1  0.52276499  0.70022391  0.45116957  1
  O  O797  1  0.97274975  0.71154951  0.28274677  1
  C  C798  1  0.94805602  0.63150229  0.46263925  1
  C  C799  1  0.51763016  0.74579523  0.46755953  1
  H  H800  1  0.88091004  0.51152630  0.31161825  1
  H  H801  1  0.97157928  0.55608805  0.43187415  1
  C  C802  1  0.86385325  0.51657741  0.36368273  1
  C  C803  1  0.79909523  0.72971584  0.47161896  1
  C  C804  1  0.97207554  0.58186915  0.47250145  1
  O  O805  1  0.65007908  0.51535244  0.35305510  1
  H  H806  1  0.85371973  0.60782109  0.47384762  1
  C  C807  1  0.80956987  0.53401438  0.48216472  1
  H  H808  1  0.65069473  0.71391471  0.48351436  1
  H  H809  1  0.93698064  0.70899133  0.49910339  1
  C  C810  1  0.51323788  0.95561962  0.48423600  1
  C  C811  1  0.50581547  0.98584479  0.42960970  1
  C  C812  1  0.98457895  0.78636374  0.49178062  1
  C  C813  1  0.95303225  0.99538637  0.45867363  1
  H  H814  1  0.79412319  0.95462894  0.47306021  1
  Cu  Cu815  1  0.80214574  0.77506531  0.27257351  1
  H  H816  1  0.82293496  0.76606348  0.45110311  1
  Cu  Cu817  1  0.79368484  0.97877000  0.27532732  1
  O  O818  1  0.84220290  0.84217278  0.26478614  1
  O  O819  1  0.82491933  0.95542948  0.35435134  1
  C  C820  1  0.87925503  0.97411558  0.37258230  1
  H  H821  1  0.83322022  0.86406250  0.44793688  1
  C  C822  1  0.87446721  0.84103074  0.46176791  1
  C  C823  1  0.91958721  0.83740518  0.41436571  1
  O  O824  1  0.91790303  0.99371359  0.33226518  1
  C  C825  1  0.97646335  0.80875132  0.43151598  1
  O  O826  1  0.77767331  0.76177100  0.35240684  1
  H  H827  1  0.91637570  0.85499693  0.36642870  1
  C  C828  1  0.89013420  0.97707172  0.43891824  1
  C  C829  1  0.84370759  0.96689081  0.48602559  1
  H  H830  1  0.56141213  0.93715110  0.49788204  1
  C  C831  1  0.57684419  0.62369969  0.61992714  1
  O  O832  1  0.56506660  0.60267446  0.56672950  1
  C  C833  1  0.78813979  0.60375982  0.63762770  1
  O  O834  1  0.76804062  0.56532461  0.61601809  1
  N  N835  1  0.80486563  0.65112140  0.61353666  1
  C  C836  1  0.77950073  0.66605853  0.55565396  1
  H  H837  1  0.71328312  0.60201987  0.53293525  1
  H  H838  1  0.82688465  0.68007249  0.63813049  1
  C  C839  1  0.81241186  0.71036629  0.52983213  1
  O  O840  1  0.56861409  0.67100579  0.62738852  1
  C  C841  1  0.60710238  0.59375949  0.67081259  1
  C  C842  1  0.62064747  0.54221558  0.66248139  1
  C  C843  1  0.80540176  0.61120737  0.70924669  1
  H  H844  1  0.87575240  0.67382050  0.70970694  1
  O  O845  1  0.95765133  0.69385545  0.67078895  1
  C  C846  1  0.95039401  0.66821466  0.51125070  1
  C  C847  1  0.97556145  0.65342529  0.57047083  1
  H  H848  1  0.75464016  0.53894507  0.72066571  1
  H  H849  1  0.64997328  0.71780497  0.72537674  1
  H  H850  1  0.78962676  0.54401770  0.53231849  1
  C  C851  1  0.62165093  0.61745316  0.72971329  1
  C  C852  1  0.98538359  0.56846068  0.53419431  1
  H  H853  1  0.60887221  0.52100017  0.61741345  1
  C  C854  1  0.63264980  0.74767195  0.50864099  1
  C  C855  1  0.98710668  0.69418991  0.62200049  1
  C  C856  1  0.73495374  0.63641899  0.51717290  1
  Cu  Cu857  1  0.54217437  0.65189451  0.50714249  1
  C  C858  1  0.99877869  0.51175211  0.54404329  1
  C  C859  1  0.64614799  0.51603284  0.71476239  1
  C  C860  1  0.98609539  0.60237049  0.58507466  1
  H  H861  1  0.84629777  0.72842216  0.56233988  1
  C  C862  1  0.77815015  0.57116902  0.74606614  1
  C  C863  1  0.84489293  0.64779899  0.73707866  1
  H  H864  1  0.60082388  0.65650893  0.73464531  1
  H  H865  1  0.50710578  0.52179561  0.74852057  1
  O  O866  1  0.53688546  0.75097337  0.69291469  1
  H  H867  1  0.71656056  0.75203934  0.57155090  1
  H  H868  1  0.98823667  0.99909317  0.64438053  1
  H  H869  1  0.95008912  0.77622616  0.58880603  1
  N  N870  1  0.83713510  0.82681753  0.57142992  1
  H  H871  1  0.96839949  0.78496673  0.71734444  1
  C  C872  1  0.88413069  0.82058317  0.52488630  1
  C  C873  1  0.82213054  0.93503104  0.74776456  1
  C  C874  1  0.55175434  0.82080320  0.52237633  1
  C  C875  1  0.96465910  0.99923196  0.52265307  1
  C  C876  1  0.89796219  0.98678580  0.68247904  1
  O  O877  1  0.84200403  0.76047466  0.65191485  1
  C  C878  1  0.84235163  0.85148624  0.67295436  1
  H  H879  1  0.77216015  0.81114098  0.73407453  1
  C  C880  1  0.61645107  0.96779366  0.72745359  1
  C  C881  1  0.93943370  0.79163678  0.54037961  1
  C  C882  1  0.59596983  0.84596205  0.56048872  1
  C  C883  1  0.65139938  0.81764648  0.57947531  1
  H  H884  1  0.74823948  0.98275490  0.59973858  1
  H  H885  1  0.82372431  0.95381246  0.58540480  1
  H  H886  1  0.72141592  0.81632587  0.64467114  1
  H  H887  1  0.90838538  0.89714172  0.61652310  1
  C  C888  1  0.84417332  0.80311037  0.63459593  1
  C  C889  1  0.56980654  0.77198239  0.50084838  1
  C  C890  1  0.70746292  0.89100554  0.60739098  1
  C  C891  1  0.70941976  0.98224064  0.63561656  1
  C  C892  1  0.68292228  0.93196181  0.64740941  1
  O  O893  1  0.74541316  0.90395916  0.56839215  1
  C  C894  1  0.79866209  0.84667434  0.72443483  1
  C  C895  1  0.67056920  0.76796810  0.55761811  1
  N  N896  1  0.68501529  0.84100730  0.63144334  1
  N  N897  1  0.94647434  0.97904372  0.63462327  1
  C  C898  1  0.86687830  0.93609974  0.69847457  1
  H  H899  1  0.79998520  0.85201355  0.56215133  1
  C  C900  1  0.87681266  0.89493860  0.65778428  1
  C  C901  1  0.63802736  0.92505062  0.69527218  1
  H  H902  1  0.58579818  0.88450761  0.58058585  1
  H  H903  1  0.62242966  0.88363049  0.70440652  1
  C  C904  1  0.92182709  0.98279036  0.57018880  1
  C  C905  1  0.85973121  0.96572911  0.54988163  1
  H  H906  1  0.50074201  0.83645602  0.51103342  1
  H  H907  1  0.80763675  0.61905076  0.89329390  1
  O  O908  1  0.74409737  0.54345083  0.90914659  1
  H  H909  1  0.65610911  0.60806585  0.82751716  1
  C  C910  1  0.64510465  0.59229442  0.78305766  1
  C  C911  1  0.74121210  0.53886625  0.85293332  1
  C  C912  1  0.80937572  0.61608104  0.84171874  1
  C  C913  1  0.77870414  0.57566579  0.81190132  1
  C  C914  1  0.84028753  0.65345728  0.80365993  1
  C  C915  1  0.87966044  0.69228115  0.83840250  1
  O  O916  1  0.87999633  0.69365739  0.89552167  1
  C  C917  1  0.91872627  0.53304030  0.89104352  1
  C  C918  1  0.56420462  0.60667788  0.90722346  1
  N  N919  1  0.91316853  0.72247664  0.79586568  1
  H  H920  1  0.78247541  0.70893904  0.89839105  1
  H  H921  1  0.89931003  0.61774373  0.92804890  1
  N  N922  1  0.74195402  0.71920366  0.92168608  1
  C  C923  1  0.89358364  0.54473993  0.96012017  1
  H  H924  1  0.57018775  0.58412673  0.86398978  1
  N  N925  1  0.89031820  0.59566226  0.96778707  1
  C  C926  1  0.69270447  0.71643100  0.81610178  1
  H  H927  1  0.73613710  0.70005962  0.79504759  1
  C  C928  1  0.96906207  0.56018050  0.86051743  1
  C  C929  1  0.51850486  0.64903673  0.90519933  1
  C  C930  1  0.68570053  0.72577862  0.88196503  1
  H  H931  1  0.84536493  0.68893275  0.98312923  1
  C  C932  1  0.59789360  0.59774730  0.96127301  1
  C  C933  1  0.50303553  0.67827070  0.95807026  1
  H  H934  1  0.63346404  0.56751563  0.96181535  1
  C  C935  1  0.65881289  0.53921300  0.77386721  1
  C  C936  1  0.98220681  0.54819108  0.79645958  1
  C  C937  1  0.64337496  0.72686201  0.77464111  1
  C  C938  1  0.95235628  0.50669296  0.76500324  1
  C  C939  1  0.58590375  0.74855507  0.79645567  1
  N  N940  1  0.69682979  0.50893262  0.81896066  1
  O  O941  1  0.87692813  0.50953285  0.99247632  1
  H  H942  1  0.99432649  0.62906088  0.81819663  1
  H  H943  1  0.71506638  0.50363872  0.97773335  1
  C  C944  1  0.62519391  0.74606025  0.90234627  1
  H  H945  1  0.92953630  0.70683325  0.75410131  1
  C  C946  1  0.93262211  0.84823427  0.87985121  1
  C  C947  1  0.93026248  0.77241210  0.81388443  1
  H  H948  1  0.61917887  0.75358543  0.95362553  1
  H  H949  1  0.64064064  0.99424278  0.87897941  1
  C  C950  1  0.58694857  0.95736064  0.95583213  1
  O  O951  1  0.97013396  0.94868254  0.88284990  1
  C  C952  1  0.66972061  0.87202115  0.93332003  1
  C  C953  1  0.57408759  0.75368428  0.86248582  1
  H  H954  1  0.55691941  0.98989435  0.96645837  1
  C  C955  1  0.91147105  0.79865474  0.87004856  1
  C  C956  1  0.63399998  0.95927825  0.90873195  1
  H  H957  1  0.88009279  0.77936916  0.90537540  1
  C  C958  1  0.62159587  0.87062169  0.98284122  1
  H  H959  1  0.94891913  0.97202510  0.99613387  1
  C  C960  1  0.99345624  0.84531076  0.77738941  1
  C  C961  1  0.75502384  0.76350221  0.96032686  1
  N  N962  1  0.71992584  0.92382711  0.84238818  1
  C  C963  1  0.97435656  0.86986376  0.83450101  1
  N  N964  1  0.52497971  0.92073107  0.75300798  1
  H  H965  1  0.57225894  0.87674451  0.85021225  1
  C  C966  1  0.51962047  0.87630623  0.85621402  1
  H  H967  1  0.51486893  0.83270094  0.94985229  1
  O  O968  1  0.55055352  0.99987773  0.80692597  1
  C  C969  1  0.56198426  0.96524957  0.77267207  1
  C  C970  1  0.67170962  0.91478056  0.89240339  1
  C  C971  1  0.73892747  0.87927814  0.81109979  1
  H  H972  1  0.70584900  0.84182012  0.92071205  1
  H  H973  1  0.81484682  0.97398999  0.77099255  1
  C  C974  1  0.99347093  0.92406377  0.84120962  1
  C  C975  1  0.78776926  0.89072577  0.75989279  1
  H  H976  1  0.52756540  0.76056563  0.87884700  1
  O  O977  1  0.71913745  0.83612207  0.81771916  1
  O  O978  1  0.78853283  0.79886873  0.94930108  1
  C  C979  1  0.53155794  0.75738285  0.75356234  1
  H  H980  1  0.73461494  0.96080024  0.82761984  1
  H  H981  1  0.91549619  0.87052506  0.92170699  1
  C  C982  1  0.57902293  0.91107991  0.99037320  1
  C  C983  1  0.96253900  0.79927669  0.76583042  1
