# generated using pymatgen
data_CuH9C18N3O4
_symmetry_space_group_name_H-M   'P 1'
_cell_length_a   23.79656780
_cell_length_b   24.16516197
_cell_length_c   23.16516506
_cell_angle_alpha   90.00000000
_cell_angle_beta   90.00000000
_cell_angle_gamma   90.00000000
_symmetry_Int_Tables_number   1
_chemical_formula_structural   CuH9C18N3O4
_chemical_formula_sum   'Cu24 H216 C432 N72 O96'
_cell_volume   13321.07987971
_cell_formula_units_Z   24
loop_
 _symmetry_equiv_pos_site_id
 _symmetry_equiv_pos_as_xyz
  1  'x, y, z'
loop_
 _atom_site_type_symbol
 _atom_site_label
 _atom_site_symmetry_multiplicity
 _atom_site_fract_x
 _atom_site_fract_y
 _atom_site_fract_z
 _atom_site_occupancy
  C  C0  1  0.37433450  0.01468766  0.40074508  1
  O  O1  1  0.44306360  0.14820945  0.07591822  1
  C  C2  1  0.03016997  0.05036769  0.49876325  1
  C  C3  1  0.37973942  0.11805880  0.27615726  1
  H  H4  1  0.33731052  0.03562328  0.42039913  1
  C  C5  1  0.38805134  0.10391095  0.33685573  1
  C  C6  1  0.40278930  0.04566811  0.35574079  1
  C  C7  1  0.34976988  0.21178003  0.30980396  1
  C  C8  1  0.35686180  0.19450965  0.36896943  1
  H  H9  1  0.35945458  0.18892960  0.22244276  1
  H  H10  1  0.38664919  0.08900591  0.24067149  1
  N  N11  1  0.02467311  0.00768904  0.22627764  1
  H  H12  1  0.34267639  0.22594660  0.40444064  1
  H  H13  1  0.38734837  0.12881396  0.42860633  1
  O  O14  1  0.32166331  0.03357136  0.07496523  1
  C  C15  1  0.36549448  0.17237437  0.26433670  1
  C  C16  1  0.38051227  0.14315317  0.38259160  1
  C  C17  1  0.45235498  0.02271752  0.33157999  1
  O  O18  1  0.24325709  0.18690967  0.46784713  1
  C  C19  1  0.48368169  0.14255063  0.04697889  1
  O  O20  1  0.06968453  0.04804873  0.46862795  1
  C  C21  1  0.48903274  0.06524919  0.45552439  1
  C  C22  1  0.24557884  0.22687162  0.49975689  1
  H  H23  1  0.01286671  0.07258964  0.38984831  1
  H  H24  1  0.49894182  0.02908500  0.43069887  1
  H  H25  1  0.47541519  0.04597480  0.29708469  1
  C  C26  1  0.47517964  0.22108664  0.43326603  1
  C  C27  1  0.32321306  0.01215225  0.02677406  1
  C  C28  1  0.47751227  0.16585900  0.45939513  1
  N  N29  1  0.00205162  0.05293545  0.21401866  1
  C  C30  1  0.49042887  0.11604877  0.42613973  1
  C  C31  1  0.17288992  0.11120093  0.66592237  1
  C  C32  1  0.47008210  0.19494260  0.87489442  1
  Cu  Cu33  1  0.09778632  0.05687282  0.59452904  1
  O  O34  1  0.16246494  0.10926146  0.71855355  1
  C  C35  1  0.21029511  0.16999396  0.58582448  1
  C  C36  1  0.19610965  0.20815336  0.68220190  1
  C  C37  1  0.05345139  0.19476678  0.75875824  1
  Cu  Cu38  1  0.09262998  0.08744939  0.75289644  1
  H  H39  1  0.20184323  0.13517652  0.55929902  1
  N  N40  1  0.05730511  0.06811738  0.67247700  1
  C  C41  1  0.19906250  0.18804325  0.86295625  1
  O  O42  1  0.35336500  0.02311611  0.98632195  1
  H  H43  1  0.17963476  0.20636761  0.72652717  1
  C  C44  1  0.40910633  0.10448322  0.75646600  1
  C  C45  1  0.23863459  0.14529628  0.84439878  1
  O  O46  1  0.03549882  0.04031255  0.55341577  1
  H  H47  1  0.46667421  0.21055054  0.83012044  1
  O  O48  1  0.15058401  0.17783943  0.88106731  1
  C  C49  1  0.19639976  0.16465528  0.64476429  1
  C  C50  1  0.46229252  0.11740813  0.72871253  1
  C  C51  1  0.26065467  0.05285442  0.83129471  1
  C  C52  1  0.42824590  0.17998907  0.96586174  1
  O  O53  1  0.08356146  0.21971718  0.79420282  1
  C  C54  1  0.42245256  0.20038669  0.90980922  1
  H  H55  1  0.39469079  0.20501820  0.74680296  1
  N  N56  1  0.36971690  0.13965838  0.76111640  1
  H  H57  1  0.18569710  0.07336608  0.87277521  1
  C  C58  1  0.22327635  0.08978496  0.85457966  1
  C  C59  1  0.32503350  0.12203146  0.79335081  1
  H  H60  1  0.29410197  0.20700211  0.81286144  1
  C  C61  1  0.28731476  0.16162849  0.81663712  1
  H  H62  1  0.39424864  0.06687053  0.77892322  1
  O  O63  1  0.04144093  0.14365279  0.76881363  1
  C  C64  1  0.48009555  0.00384494  0.54169324  1
  C  C65  1  0.30921602  0.06581548  0.80049443  1
  H  H66  1  0.33383747  0.03159107  0.78067887  1
  H  H67  1  0.45762647  0.02138885  0.63369660  1
  C  C68  1  0.03213704  0.22023204  0.70543794  1
  Cu  Cu69  1  0.08322034  0.22148749  0.87707689  1
  O  O70  1  0.16358527  0.07257728  0.63120070  1
  C  C71  1  0.48062436  0.16019921  0.98509666  1
  C  C72  1  0.47867684  0.16327817  0.52199936  1
  C  C73  1  0.22785617  0.22063517  0.56111014  1
  H  H74  1  0.47218752  0.00179890  0.70509819  1
  C  C75  1  0.43203045  0.21437843  0.72389749  1
  N  N76  1  0.13886416  0.01875721  0.77663830  1
  C  C77  1  0.37231271  0.23181747  0.89791837  1
  C  C78  1  0.46927893  0.17232440  0.70063311  1
  H  H79  1  0.47671873  0.19887846  0.54953625  1
  C  C80  1  0.48075083  0.06098421  0.51705226  1
  O  O81  1  0.33050078  0.22481923  0.93107397  1
  H  H82  1  0.47192549  0.11012499  0.59705647  1
  N  N83  1  0.00675730  0.06750947  0.67179336  1
  C  C84  1  0.47633728  0.11134542  0.54950860  1
  O  O85  1  0.21884398  0.23775509  0.86199055  1
  H  H86  1  0.39648114  0.18268066  0.99944313  1
  O  O87  1  0.46920870  0.26544891  0.16150406  1
  N  N88  1  0.32227739  0.27067770  0.20444819  1
  O  O89  1  0.46618908  0.38872972  0.10399420  1
  O  O90  1  0.21390542  0.37698454  0.29940928  1
  C  C91  1  0.32845651  0.30069050  0.25011267  1
  C  C92  1  0.27546703  0.31833952  0.06605460  1
  O  O93  1  0.41913267  0.41094491  0.02593786  1
  C  C94  1  0.41602384  0.49243327  0.37734074  1
  H  H95  1  0.43914013  0.28148273  0.26925162  1
  H  H96  1  0.33048920  0.34657114  0.24438117  1
  C  C97  1  0.21232296  0.40053887  0.34421461  1
  C  C98  1  0.37655536  0.48324234  0.41912907  1
  C  C99  1  0.32464438  0.34458802  0.04738229  1
  C  C100  1  0.36635747  0.33683420  0.14154692  1
  C  C101  1  0.42210204  0.38725458  0.06962621  1
  H  H102  1  0.23523174  0.26836677  0.13017634  1
  H  H103  1  0.40323034  0.34270307  0.17019222  1
  C  C104  1  0.34667948  0.42774666  0.43155303  1
  C  C105  1  0.36866603  0.35531135  0.08714631  1
  H  H106  1  0.41743308  0.31777504  0.37315587  1
  O  O107  1  0.19268333  0.37876792  0.38982460  1
  H  H108  1  0.43190638  0.46041036  0.35154891  1
  N  N109  1  0.31061214  0.33120750  0.39057223  1
  N  N110  1  0.32343987  0.30264965  0.34907119  1
  C  C111  1  0.27122471  0.29513365  0.11945048  1
  Cu  Cu112  1  0.23233862  0.32693371  0.43324701  1
  O  O113  1  0.35686585  0.39019461  0.39658602  1
  H  H114  1  0.27247718  0.44543820  0.25281433  1
  H  H115  1  0.11098298  0.43482113  0.46229466  1
  C  C116  1  0.23786992  0.45936511  0.33925622  1
  C  C117  1  0.31920790  0.30279515  0.15629496  1
  C  C118  1  0.03255390  0.47585263  0.45902370  1
  C  C119  1  0.22895460  0.30393976  0.02466505  1
  O  O120  1  0.26132605  0.27603266  0.48032755  1
  C  C121  1  0.02357572  0.47512806  0.05693500  1
  C  C122  1  0.33476316  0.27015416  0.30403316  1
  C  C123  1  0.26609704  0.47320447  0.28908213  1
  O  O124  1  0.31021185  0.42469379  0.46760900  1
  O  O125  1  0.18933241  0.28166805  0.04408391  1
  N  N126  1  0.46271677  0.31790175  0.38345062  1
  H  H127  1  0.04128764  0.48087614  0.41101613  1
  H  H128  1  0.20551779  0.47883522  0.42377049  1
  C  C129  1  0.47979546  0.30414582  0.27744843  1
  C  C130  1  0.46719483  0.26641154  0.41198238  1
  C  C131  1  0.49693373  0.32240777  0.33062955  1
  O  O132  1  0.06544592  0.49093644  0.28777364  1
  H  H133  1  0.01172446  0.46918259  0.15164667  1
  C  C134  1  0.00781508  0.45604777  0.00001888  1
  C  C135  1  0.23159175  0.49369329  0.38598277  1
  H  H136  1  0.32958607  0.36252130  0.00314983  1
  C  C137  1  0.07634191  0.45099083  0.48990496  1
  C  C138  1  0.44439955  0.47866050  0.86382880  1
  H  H139  1  0.42774478  0.30647271  0.73408519  1
  Cu  Cu140  1  0.26184732  0.26611462  0.92518487  1
  N  N141  1  0.29164261  0.32611689  0.82113440  1
  H  H142  1  0.37808345  0.43650753  0.69677856  1
  H  H143  1  0.07839344  0.29242405  0.72793620  1
  C  C144  1  0.09909758  0.36733851  0.62617617  1
  O  O145  1  0.40479142  0.45343715  0.84391431  1
  H  H146  1  0.12858524  0.33566519  0.64801527  1
  N  N147  1  0.16555098  0.43146639  0.60417524  1
  H  H148  1  0.33794098  0.41514957  0.81468961  1
  C  C149  1  0.30844410  0.43353246  0.78227742  1
  N  N150  1  0.31205463  0.31212211  0.86727804  1
  C  C151  1  0.23233659  0.26740627  0.59621413  1
  N  N152  1  0.22435591  0.30399081  0.68426077  1
  H  H153  1  0.24704184  0.30636680  0.57572581  1
  C  C154  1  0.03222902  0.29889972  0.64332640  1
  O  O155  1  0.36801244  0.26432253  0.85572960  1
  H  H156  1  0.02691971  0.47623509  0.95966419  1
  N  N157  1  0.04959983  0.34975192  0.62255682  1
  O  O158  1  0.23627455  0.31356369  0.96902969  1
  H  H159  1  0.42815185  0.37060180  0.66717947  1
  C  C160  1  0.22541403  0.42176847  0.71452529  1
  H  H161  1  0.01775277  0.45149016  0.62397541  1
  H  H162  1  0.19649627  0.39530416  0.69289424  1
  C  C163  1  0.02394848  0.46210817  0.58006231  1
  C  C164  1  0.22098047  0.47841068  0.70930371  1
  C  C165  1  0.05333163  0.27250365  0.69375205  1
  O  O166  1  0.48751278  0.49014575  0.83501517  1
  C  C167  1  0.07430126  0.44731894  0.55080885  1
  C  C168  1  0.26791701  0.40044945  0.75307540  1
  C  C169  1  0.11514979  0.41640325  0.59269602  1
  H  H170  1  0.19279840  0.49551288  0.67323792  1
  C  C171  1  0.26719011  0.34168391  0.77086516  1
  C  C172  1  0.44329797  0.48239509  0.64903855  1
  C  C173  1  0.24183725  0.29803331  0.73816344  1
  C  C174  1  0.47264208  0.38475205  0.67485861  1
  C  C175  1  0.44933750  0.26762292  0.71699080  1
  N  N176  1  0.18655760  0.48839365  0.56877309  1
  C  C177  1  0.30525332  0.49107403  0.77499884  1
  O  O178  1  0.01523745  0.34241480  0.87010277  1
  H  H179  1  0.34781568  0.48202595  0.91703916  1
  C  C180  1  0.38699527  0.47027552  0.66407268  1
  H  H181  1  0.23891136  0.25397989  0.75076787  1
  N  N182  1  0.23598303  0.49361998  0.58369388  1
  C  C183  1  0.48933820  0.44036484  0.66807702  1
  O  O184  1  0.01320246  0.25233279  0.88117464  1
  C  C185  1  0.21612464  0.25781059  0.65405304  1
  H  H186  1  0.30017289  0.48359533  0.64455739  1
  C  C187  1  0.49885125  0.28076187  0.68644325  1
  C  C188  1  0.34439488  0.49873205  0.63544758  1
  C  C189  1  0.06093415  0.70014698  0.49128053  1
  C  C190  1  0.24624279  0.63720492  0.41169092  1
  C  C191  1  0.19561209  0.63484774  0.23628758  1
  N  N192  1  0.23281938  0.58634421  0.42122945  1
  H  H193  1  0.05040908  0.56306591  0.44921614  1
  C  C194  1  0.05531466  0.59940583  0.47731102  1
  H  H195  1  0.30675874  0.60037599  0.33038060  1
  C  C196  1  0.41193934  0.55345983  0.03097930  1
  C  C197  1  0.10005075  0.52688875  0.30127509  1
  C  C198  1  0.16921092  0.60280766  0.27843927  1
  H  H199  1  0.18062702  0.60606005  0.32507038  1
  C  C200  1  0.11905610  0.55323279  0.20089573  1
  H  H201  1  0.01198361  0.68755397  0.22182071  1
  O  O202  1  0.34389636  0.59343063  0.23486295  1
  O  O203  1  0.48003431  0.60708374  0.30082277  1
  O  O204  1  0.41430406  0.66344042  0.11824946  1
  N  N205  1  0.31286140  0.54151744  0.01221130  1
  H  H206  1  0.20870687  0.65601741  0.14571114  1
  H  H207  1  0.25580825  0.57563945  0.04886076  1
  C  C208  1  0.41741957  0.59144320  0.40184256  1
  N  N209  1  0.13790883  0.58472324  0.10271901  1
  C  C210  1  0.18526754  0.62975777  0.17719866  1
  C  C211  1  0.02153681  0.67992190  0.26950285  1
  N  N212  1  0.18753185  0.73342527  0.05363975  1
  N  N213  1  0.46085518  0.72736171  0.30741124  1
  C  C214  1  0.23535618  0.67890309  0.25539803  1
  N  N215  1  0.20918963  0.73424604  0.10123744  1
  C  C216  1  0.46875700  0.55581994  0.31437486  1
  O  O217  1  0.34008802  0.50876121  0.19931356  1
  Cu  Cu218  1  0.37450728  0.63017978  0.17702437  1
  C  C219  1  0.10084742  0.54756970  0.08954600  1
  O  O220  1  0.25229945  0.71093431  0.21340866  1
  H  H221  1  0.43114617  0.63430877  0.39364878  1
  H  H222  1  0.06151607  0.74201900  0.47426366  1
  C  C223  1  0.29223219  0.52519575  0.28847900  1
  C  C224  1  0.42819363  0.71196035  0.12624412  1
  C  C225  1  0.35532451  0.52603115  0.45263415  1
  C  C226  1  0.37932589  0.58013369  0.44744070  1
  C  C227  1  0.14865843  0.74150547  0.00994841  1
  C  C228  1  0.04452123  0.65946286  0.38853403  1
  H  H229  1  0.11706532  0.71050184  0.20476093  1
  H  H230  1  0.27389281  0.64153504  0.37277182  1
  C  C231  1  0.14446274  0.59045532  0.15967194  1
  C  C232  1  0.24978040  0.55051990  0.37937723  1
  C  C233  1  0.28248569  0.56395872  0.33099345  1
  C  C234  1  0.32859256  0.54143111  0.23688346  1
  C  C235  1  0.23534252  0.68427404  0.44945450  1
  C  C236  1  0.13200841  0.56298571  0.25787293  1
  C  C237  1  0.05440296  0.71660415  0.30219420  1
  C  C238  1  0.48758222  0.72907950  0.11088984  1
  N  N239  1  0.36690566  0.62529419  0.48055116  1
  O  O240  1  0.25012853  0.68715994  0.30469218  1
  O  O241  1  0.10983560  0.53600223  0.35281576  1
  C  C242  1  0.43321184  0.54817796  0.36742477  1
  N  N243  1  0.43189537  0.70127627  0.27300589  1
  N  N244  1  0.28496764  0.72001959  0.10156921  1
  H  H245  1  0.49253517  0.67159194  0.03721585  1
  Cu  Cu246  1  0.47096952  0.64741813  0.22886072  1
  H  H247  1  0.35532552  0.74493377  0.04908090  1
  N  N248  1  0.29987773  0.68198126  0.06898351  1
  C  C249  1  0.29713456  0.58809025  0.03462678  1
  H  H250  1  0.08964115  0.51700335  0.19184756  1
  H  H251  1  0.40066035  0.57546366  0.07097861  1
  H  H252  1  0.01709334  0.60002272  0.17681969  1
  C  C253  1  0.31928165  0.64417410  0.03305711  1
  C  C254  1  0.05499632  0.65337265  0.45207037  1
  C  C255  1  0.01796681  0.61779262  0.35290558  1
  C  C256  1  0.06260211  0.70918799  0.36327707  1
  O  O257  1  0.48838428  0.51802142  0.28850510  1
  C  C258  1  0.00237026  0.62887235  0.29471529  1
  C  C259  1  0.06466845  0.51473944  0.07494516  1
  H  H260  1  0.32147691  0.51866473  0.48128607  1
  Cu  Cu261  1  0.32182992  0.72632109  0.18173426  1
  C  C262  1  0.46536260  0.54355785  0.01063031  1
  O  O263  1  0.39668234  0.74458208  0.15169021  1
  H  H264  1  0.08626868  0.73799071  0.38866474  1
  H  H265  1  0.00775598  0.57581907  0.37094062  1
  H  H266  1  0.27689672  0.73646050  0.35218576  1
  N  N267  1  0.26110925  0.73019185  0.43204602  1
  C  C268  1  0.37113329  0.72856797  0.00829245  1
  C  C269  1  0.20037424  0.67616538  0.84821894  1
  C  C270  1  0.19415766  0.68115898  0.73432696  1
  C  C271  1  0.47654709  0.52547436  0.95399330  1
  H  H272  1  0.15815459  0.59309288  0.60048884  1
  C  C273  1  0.21811659  0.68985099  0.95174573  1
  H  H274  1  0.18520640  0.60202907  0.50055142  1
  H  H275  1  0.27594889  0.64690096  0.89318421  1
  C  C276  1  0.21109034  0.65584315  0.78688865  1
  C  C277  1  0.19168158  0.67568065  0.62549303  1
  H  H278  1  0.47399544  0.70170231  0.57757271  1
  C  C279  1  0.23816332  0.59977685  0.68266834  1
  C  C280  1  0.35236593  0.54279190  0.59509105  1
  C  C281  1  0.18791514  0.63920720  0.52814517  1
  C  C282  1  0.20824402  0.69247728  0.50639310  1
  H  H283  1  0.45510041  0.60697102  0.73678940  1
  H  H284  1  0.10089874  0.59786614  0.72479839  1
  H  H285  1  0.46726064  0.74326396  0.80825259  1
  C  C286  1  0.45400619  0.52649570  0.60972980  1
  H  H287  1  0.12155201  0.70317914  0.81407906  1
  C  C288  1  0.46635841  0.65525619  0.65686078  1
  C  C289  1  0.20748695  0.65144510  0.68233097  1
  N  N290  1  0.25739058  0.55329666  0.55207299  1
  H  H291  1  0.24007315  0.57994947  0.83048758  1
  N  N292  1  0.08391675  0.56195145  0.70820229  1
  H  H293  1  0.38500411  0.60148652  0.94043036  1
  C  C294  1  0.23756711  0.60248200  0.79046448  1
  H  H295  1  0.05368719  0.54355646  0.55111102  1
  C  C296  1  0.05815376  0.63359196  0.57444839  1
  C  C297  1  0.00193070  0.71269531  0.82105311  1
  C  C298  1  0.36384497  0.67170365  0.77945623  1
  C  C299  1  0.45138410  0.69391393  0.61852802  1
  H  H300  1  0.41882720  0.59297701  0.55986654  1
  C  C301  1  0.06194055  0.68905007  0.55040546  1
  C  C302  1  0.24905979  0.57310683  0.73814301  1
  C  C303  1  0.17439015  0.63203105  0.58498480  1
  C  C304  1  0.39590421  0.67624726  0.72365239  1
  C  C305  1  0.39105613  0.64543261  0.94984915  1
  C  C306  1  0.32829637  0.62117100  0.52081063  1
  C  C307  1  0.37621770  0.71825675  0.68819963  1
  H  H308  1  0.32465358  0.66187324  0.53715635  1
  C  C309  1  0.23362803  0.66664607  0.89914063  1
  C  C310  1  0.02108900  0.69408710  0.76854874  1
  C  C311  1  0.40087272  0.72550589  0.63319668  1
  H  H312  1  0.24702948  0.57777570  0.64414294  1
  O  O313  1  0.32036540  0.70572944  0.78526191  1
  C  C314  1  0.06637979  0.62624695  0.63873127  1
  N  N315  1  0.08690780  0.72305468  0.68651365  1
  C  C316  1  0.44119286  0.64235042  0.70840982  1
  O  O317  1  0.37964244  0.64359730  0.81746379  1
  C  C318  1  0.41008782  0.55680298  0.58638957  1
  C  C319  1  0.30941634  0.56977852  0.55550421  1
  C  C320  1  0.43203095  0.67465200  0.91823829  1
  C  C321  1  0.19877436  0.72994085  0.60281934  1
  C  C322  1  0.14609910  0.70157710  0.85366795  1
  C  C323  1  0.07404367  0.67418726  0.67211576  1
  C  C324  1  0.16559915  0.72140781  0.95248598  1
  H  H325  1  0.17179850  0.71945622  0.73062538  1
  H  H326  1  0.33660819  0.51792808  0.79561375  1
  C  C327  1  0.26160319  0.51103150  0.73947994  1
  H  H328  1  0.45821385  0.65364601  0.88657396  1
  N  N329  1  0.06550480  0.56975384  0.65748067  1
  C  C330  1  0.05255248  0.58687787  0.53596211  1
  C  C331  1  0.06071475  0.72770799  0.73973523  1
  C  C332  1  0.43866560  0.73319320  0.92991413  1
  C  C333  1  0.20839992  0.73961145  0.54382748  1
  H  H334  1  0.33983995  0.74538724  0.70217007  1
  C  C335  1  0.12712593  0.72568509  0.90524524  1
  H  H336  1  0.06908802  0.72105234  0.58450200  1
  H  H337  1  0.00450183  0.65459336  0.74984436  1
  Cu  Cu338  1  0.29116694  0.74709804  0.84439997  1
  H  H339  1  0.31001219  0.74595004  0.64030256  1
  C  C340  1  0.37736856  0.50650523  0.94346081  1
  C  C341  1  0.36039117  0.67162715  0.99545830  1
  C  C342  1  0.36718622  0.53623156  0.99608596  1
  C  C343  1  0.43143003  0.50483075  0.92421534  1
  H  H344  1  0.24294989  0.68089782  0.99063965  1
  H  H345  1  0.49521578  0.53901817  0.59771221  1
  H  H346  1  0.08766476  0.74709136  0.90780194  1
  H  H347  1  0.25888700  0.95864601  0.10676643  1
  C  C348  1  0.01685508  0.78944690  0.07225542  1
  C  C349  1  0.12572863  0.79798678  0.18250304  1
  C  C350  1  0.11379861  0.85272616  0.20197884  1
  C  C351  1  0.38847498  0.95916504  0.41185601  1
  H  H352  1  0.08529037  0.90544770  0.27468089  1
  H  H353  1  0.04159019  0.82463702  0.32682771  1
  C  C354  1  0.44495476  0.82121005  0.45768529  1
  H  H355  1  0.47875153  0.85859333  0.29627632  1
  C  C356  1  0.22992213  0.88733053  0.05513963  1
  C  C357  1  0.43551282  0.93395400  0.38187418  1
  H  H358  1  0.02525604  0.80185151  0.16259145  1
  N  N359  1  0.19544121  0.86960254  0.09796964  1
  C  C360  1  0.23672195  0.85348533  0.00595489  1
  C  C361  1  0.09239913  0.76074845  0.02037589  1
  C  C362  1  0.07903899  0.76500152  0.26884793  1
  C  C363  1  0.25635756  0.93996316  0.06440061  1
  C  C364  1  0.16281348  0.90957041  0.11814286  1
  H  H365  1  0.44498257  0.89044778  0.39048000  1
  N  N366  1  0.07143712  0.77145063  0.07080891  1
  N  N367  1  0.07197498  0.99297546  0.17085116  1
  C  C368  1  0.32749318  0.88068185  0.44991477  1
  C  C369  1  0.46618385  0.96598710  0.34214077  1
  C  C370  1  0.12711134  0.90219877  0.16683003  1
  C  C371  1  0.10979249  0.75304512  0.21678108  1
  C  C372  1  0.47316735  0.93289039  0.03218005  1
  C  C373  1  0.09100259  0.86295384  0.25847119  1
  C  C374  1  0.48787661  0.85671223  0.47677316  1
  H  H375  1  0.17050430  0.94654903  0.09189086  1
  C  C376  1  0.06911149  0.81885294  0.29061651  1
  C  C377  1  0.28872093  0.95789784  0.01836834  1
  H  H378  1  0.15093259  0.79164840  0.14278273  1
  H  H379  1  0.44489745  0.91439985  0.06511031  1
  N  N380  1  0.09365452  0.94714869  0.17801807  1
  C  C381  1  0.35582551  0.93109055  0.46035958  1
  H  H382  1  0.31906012  0.86743824  0.40489039  1
  C  C383  1  0.45017315  0.78464555  0.41238891  1
  H  H384  1  0.21235317  0.81433208  0.00020880  1
  N  N385  1  0.28550620  0.75555420  0.39239766  1
  H  H386  1  0.49596064  0.79287249  0.17549073  1
  H  H387  1  0.41541355  0.75589570  0.39937717  1
  H  H388  1  0.28864550  0.80691246  0.49272690  1
  H  H389  1  0.40094372  0.82174628  0.47652108  1
  C  C390  1  0.31324927  0.84643174  0.49724825  1
  C  C391  1  0.42856715  0.84530657  0.74598426  1
  N  N392  1  0.37847025  0.76263275  0.59537773  1
  C  C393  1  0.46396733  0.92095207  0.97232312  1
  H  H394  1  0.40968762  0.80675830  0.98182898  1
  C  C395  1  0.33898950  0.92330652  0.56468947  1
  O  O396  1  0.11746374  0.87046599  0.80558214  1
  Cu  Cu397  1  0.16412418  0.92309325  0.83462356  1
  H  H398  1  0.11143278  0.80235218  0.74069183  1
  N  N399  1  0.25772502  0.78958146  0.73500488  1
  O  O400  1  0.06738398  0.86882381  0.88574102  1
  N  N401  1  0.26373670  0.80337603  0.78462384  1
  C  C402  1  0.45108872  0.94658089  0.77624503  1
  C  C403  1  0.42253690  0.88056295  0.90086259  1
  H  H404  1  0.31575114  0.94536767  0.92973413  1
  O  O405  1  0.28169730  0.95967877  0.80585913  1
  C  C406  1  0.42853977  0.88204098  0.84812847  1
  H  H407  1  0.41932778  0.80364914  0.76094730  1
  C  C408  1  0.44807249  0.91863238  0.67614581  1
  N  N409  1  0.42184902  0.88659091  0.95725788  1
  H  H410  1  0.42433442  0.82806920  0.65450754  1
  N  N411  1  0.24109977  0.84657052  0.69012170  1
  O  O412  1  0.21500992  0.97107444  0.86693893  1
  C  C413  1  0.27039420  0.87483123  0.96220668  1
  C  C414  1  0.07857275  0.85053551  0.83861354  1
  Cu  Cu415  1  0.26927849  0.88697235  0.79925830  1
  H  H416  1  0.20504911  0.76575092  0.63268151  1
  C  C417  1  0.43690627  0.88889060  0.78844729  1
  C  C418  1  0.28052931  0.84411289  0.90885566  1
  C  C419  1  0.46045671  0.88629591  0.57582582  1
  C  C420  1  0.05352503  0.79674792  0.81697388  1
  O  O421  1  0.30972405  0.86613125  0.86953747  1
  C  C422  1  0.48423077  0.76518866  0.89811719  1
  C  C423  1  0.29275295  0.92823941  0.96724664  1
  C  C424  1  0.47503213  0.90325403  0.51943837  1
  C  C425  1  0.30251717  0.83043169  0.60326557  1
  N  N426  1  0.26532787  0.84722133  0.64249179  1
  C  C427  1  0.31988746  0.86736667  0.55359446  1
  C  C428  1  0.45579071  0.96142510  0.71913400  1
  H  H429  1  0.34085788  0.93884147  0.60798320  1
  C  C430  1  0.43394587  0.85977766  0.68854756  1
  O  O431  1  0.26554391  0.79356231  0.90336785  1
  N  N432  1  0.11458440  0.98683736  0.80580703  1
  C  C433  1  0.46384447  0.99084622  0.59966604  1
  C  C434  1  0.32598752  0.77665539  0.60909075  1
  C  C435  1  0.07662141  0.77808040  0.76448706  1
  H  H436  1  0.37566597  0.99530068  0.52476224  1
  H  H437  1  0.05705320  0.76595971  0.98881680  1
  H  H438  1  0.21798545  0.78212783  0.53125414  1
  H  H439  1  0.45747530  0.97633915  0.81225352  1
  C  C440  1  0.45978002  0.93232330  0.61516877  1
  C  C441  1  0.35507355  0.95660045  0.51803160  1
  C  C442  1  0.49077290  0.77069600  0.83624574  1
  H  H443  1  0.45185097  0.84388051  0.58747116  1
  C  C444  1  0.25420662  0.99149530  0.83790179  1
  C  C445  1  0.40531406  0.76141750  0.97209342  1
  H  H446  1  0.49598487  0.93052610  0.87887892  1
  C  C447  1  0.48799030  0.95921389  0.50216473  1
  C  C448  1  0.01487630  0.76450404  0.84555912  1
  C  C449  1  0.87408241  0.09385278  0.48263391  1
  C  C450  1  0.83894968  0.24413654  0.03675058  1
  H  H451  1  0.83778249  0.12593800  0.40366717  1
  H  H452  1  0.64522670  0.14728049  0.29683726  1
  C  C453  1  0.92318448  0.09593065  0.39114971  1
  C  C454  1  0.90752025  0.17505070  0.21971005  1
  C  C455  1  0.97185855  0.06589936  0.47542904  1
  Cu  Cu456  1  0.53367047  0.09305622  0.13935010  1
  C  C457  1  0.68314603  0.16340109  0.07544388  1
  H  H458  1  0.80940603  0.21067502  0.04186003  1
  H  H459  1  0.90077698  0.17683840  0.26820424  1
  C  C460  1  0.87503370  0.10800481  0.42402458  1
  C  C461  1  0.74301285  0.22019550  0.15666789  1
  H  H462  1  0.78213579  0.03751774  0.24998775  1
  H  H463  1  0.97088047  0.04804343  0.32634373  1
  C  C464  1  0.95002692  0.07945987  0.30132034  1
  C  C465  1  0.95231726  0.12314340  0.14020869  1
  C  C466  1  0.76796525  0.13027036  0.30308865  1
  C  C467  1  0.97465319  0.07604501  0.41670835  1
  N  N468  1  0.92249669  0.11255079  0.33400161  1
  O  O469  1  0.75807977  0.15741004  0.34578486  1
  C  C470  1  0.62600040  0.07801999  0.24038292  1
  C  C471  1  0.64223810  0.03145407  0.20890186  1
  H  H472  1  0.71327803  0.23002734  0.26834249  1
  O  O473  1  0.53449846  0.06707296  0.21307237  1
  C  C474  1  0.66149360  0.11096800  0.27187404  1
  O  O475  1  0.70248417  0.11888107  0.08679922  1
  C  C476  1  0.71815100  0.09626930  0.27067592  1
  H  H477  1  0.58848452  0.01467235  0.00941416  1
  O  O478  1  0.55055139  0.12209207  0.28776021  1
  H  H479  1  0.76518975  0.18490950  0.17010191  1
  H  H480  1  0.57059529  0.01390798  0.33035201  1
  C  C481  1  0.96596201  0.08826212  0.24127891  1
  C  C482  1  0.94000577  0.12893475  0.20182320  1
  C  C483  1  0.73688990  0.05013427  0.24234383  1
  O  O484  1  0.64459331  0.17236681  0.04168245  1
  C  C485  1  0.70028985  0.01713421  0.20641695  1
  O  O486  1  0.81462581  0.12844769  0.28378716  1
  C  C487  1  0.93023296  0.16163097  0.10274248  1
  C  C488  1  0.56658418  0.09142722  0.25141937  1
  C  C489  1  0.88480084  0.21426018  0.18203477  1
  C  C490  1  0.89659038  0.20713141  0.12208757  1
  O  O491  1  0.52931957  0.11912251  0.06818645  1
  H  H492  1  0.93797673  0.15582676  0.05779752  1
  C  C493  1  0.70318590  0.22071070  0.11397675  1
  H  H494  1  0.60880946  0.00573055  0.18877430  1
  O  O495  1  0.56083865  0.02478896  0.11707463  1
  H  H496  1  0.50051742  0.11990885  0.38130287  1
  H  H497  1  0.97481665  0.08590940  0.12307226  1
  O  O498  1  0.78823674  0.13012382  0.49191413  1
  C  C499  1  0.52086295  0.17151535  0.89576108  1
  C  C500  1  0.71343603  0.21601075  0.87402795  1
  N  N501  1  0.56650765  0.16180088  0.85507278  1
  O  O502  1  0.91129614  0.14621267  0.60485208  1
  C  C503  1  0.82159161  0.10151525  0.51526669  1
  C  C504  1  0.66749329  0.18430601  0.83835588  1
  N  N505  1  0.54667894  0.05279021  0.73747312  1
  H  H506  1  0.54511911  0.15138681  0.64543728  1
  H  H507  1  0.94898468  0.20792109  0.80933166  1
  C  C508  1  0.52953799  0.15089378  0.95146477  1
  H  H509  1  0.56769337  0.12732049  0.96591808  1
  O  O510  1  0.62169401  0.03195514  0.91884000  1
  C  C511  1  0.51815354  0.18310410  0.66363371  1
  N  N512  1  0.67094065  0.17597679  0.78255560  1
  O  O513  1  0.89222086  0.14325947  0.74670852  1
  H  H514  1  0.61960467  0.17925073  0.92025147  1
  Cu  Cu515  1  0.83119359  0.14098664  0.63027931  1
  Cu  Cu516  1  0.54992272  0.16806120  0.77415342  1
  C  C517  1  0.61763843  0.17430170  0.87293257  1
  N  N518  1  0.61712719  0.13907290  0.75090800  1
  H  H519  1  0.61753484  0.13666705  0.70742839  1
  H  H520  1  0.57105102  0.24859314  0.63122820  1
  O  O521  1  0.83627848  0.19078524  0.68882350  1
  C  C522  1  0.87491608  0.18662334  0.72800674  1
  C  C523  1  0.58485026  0.00356087  0.89939661  1
  C  C524  1  0.93414241  0.19040756  0.58100456  1
  Cu  Cu525  1  0.59934896  0.07750232  0.79367794  1
  H  H526  1  0.92259436  0.05921940  0.55205869  1
  O  O527  1  0.81545184  0.09342480  0.57235519  1
  C  C528  1  0.80896040  0.22700463  0.90527223  1
  H  H529  1  0.97450154  0.14952192  0.68089215  1
  O  O530  1  0.91533445  0.21254840  0.54076661  1
  C  C531  1  0.76923932  0.20126696  0.86766384  1
  C  C532  1  0.97523700  0.22058390  0.62265193  1
  C  C533  1  0.89169737  0.24506723  0.75063738  1
  N  N534  1  0.50173177  0.07804432  0.73415747  1
  C  C535  1  0.99084669  0.19430791  0.67203831  1
  C  C536  1  0.53220434  0.23925984  0.65880154  1
  C  C537  1  0.93046976  0.24831311  0.79467449  1
  H  H538  1  0.85339685  0.21762576  0.90335169  1
  H  H539  1  0.77810205  0.16420940  0.83744773  1
  C  C540  1  0.92198956  0.07126751  0.50757356  1
  C  C541  1  0.56757571  0.34356025  0.23972578  1
  C  C542  1  0.82716583  0.41984694  0.31425227  1
  C  C543  1  0.51850444  0.31465973  0.23407934  1
  Cu  Cu544  1  0.70883349  0.46051603  0.26164085  1
  Cu  Cu545  1  0.68680475  0.46823054  0.38185644  1
  H  H546  1  0.80872528  0.35037850  0.25713097  1
  N  N547  1  0.79990141  0.48831892  0.06443204  1
  H  H548  1  0.59806769  0.34677644  0.20294846  1
  C  C549  1  0.73841629  0.26610431  0.27881660  1
  H  H550  1  0.74507355  0.33828009  0.43895720  1
  H  H551  1  0.64262598  0.25573573  0.06502140  1
  H  H552  1  0.79362876  0.43027386  0.46125557  1
  N  N553  1  0.76807487  0.28878450  0.23654169  1
  C  C554  1  0.95221719  0.41522822  0.10373639  1
  H  H555  1  0.94604511  0.30617789  0.11236033  1
  C  C556  1  0.94087902  0.39357150  0.04723954  1
  C  C557  1  0.72468168  0.32504169  0.16260606  1
  C  C558  1  0.74221775  0.28903704  0.33434753  1
  C  C559  1  0.76720529  0.36432873  0.40487171  1
  C  C560  1  0.80279141  0.36881516  0.30107406  1
  C  C561  1  0.79336655  0.41447933  0.41732010  1
  H  H562  1  0.73332436  0.36446711  0.18489951  1
  C  C563  1  0.77238295  0.34052384  0.34777229  1
  O  O564  1  0.66740560  0.41555660  0.12271559  1
  C  C565  1  0.74957375  0.27532180  0.18448842  1
  O  O566  1  0.64699824  0.40575696  0.35752212  1
  C  C567  1  0.54832305  0.35030804  0.34171352  1
  O  O568  1  0.54491605  0.30913015  0.13331519  1
  O  O569  1  0.66889359  0.39731649  0.26456205  1
  H  H570  1  0.56228328  0.36370904  0.38590394  1
  Cu  Cu571  1  0.72633514  0.46232906  0.10267330  1
  H  H572  1  0.85475732  0.44089706  0.28114698  1
  N  N573  1  0.79494566  0.48631467  0.18461212  1
  C  C574  1  0.99612592  0.45120003  0.10852496  1
  C  C575  1  0.90007431  0.47866784  0.42559714  1
  N  N576  1  0.70440593  0.26653535  0.37393421  1
  C  C577  1  0.82128086  0.44219693  0.37141788  1
  C  C578  1  0.58131361  0.36355598  0.29482068  1
  C  C579  1  0.63447055  0.39141726  0.30622363  1
  C  C580  1  0.68463585  0.32183333  0.12021490  1
  O  O581  1  0.61369561  0.36608182  0.06548545  1
  Cu  Cu582  1  0.53880541  0.37677025  0.08776032  1
  C  C583  1  0.65501744  0.37178015  0.09952200  1
  C  C584  1  0.90163822  0.34505195  0.03900830  1
  H  H585  1  0.86282333  0.25155167  0.19786695  1
  H  H586  1  0.93033716  0.39713235  0.14235504  1
  H  H587  1  0.91260148  0.43394761  0.43014180  1
  C  C588  1  0.91186761  0.30228953  0.08023250  1
  C  C589  1  0.50960609  0.29346602  0.17276582  1
  C  C590  1  0.67315151  0.26816882  0.09911533  1
  C  C591  1  0.87831037  0.25488746  0.08083689  1
  C  C592  1  0.85045352  0.49476288  0.39577675  1
  N  N593  1  0.74712569  0.46514275  0.18117018  1
  H  H594  1  0.71010612  0.49652830  0.00887577  1
  O  O595  1  0.69440573  0.49502123  0.45727318  1
  C  C596  1  0.80474831  0.49323311  0.00358930  1
  C  C597  1  0.98292923  0.49258957  0.48854069  1
  N  N598  1  0.67753036  0.25848506  0.41753288  1
  C  C599  1  0.85936833  0.43638646  0.74046886  1
  C  C600  1  0.94685563  0.30030489  0.81701748  1
  C  C601  1  0.92294570  0.34922249  0.79756608  1
  H  H602  1  0.85414557  0.36693341  0.96178398  1
  H  H603  1  0.76905890  0.38262842  0.74874116  1
  C  C604  1  0.58519377  0.41576322  0.68614599  1
  C  C605  1  0.75916171  0.46015984  0.70894401  1
  C  C606  1  0.87046647  0.29266471  0.72679432  1
  H  H607  1  0.60432491  0.32742154  0.68973067  1
  C  C608  1  0.57035815  0.35751696  0.68665199  1
  H  H609  1  0.89911378  0.45005568  0.76198873  1
  C  C610  1  0.67836668  0.39953963  0.73086566  1
  H  H611  1  0.93264115  0.38841323  0.81864687  1
  C  C612  1  0.99501784  0.27192416  0.60470152  1
  C  C613  1  0.88379381  0.34469663  0.75271228  1
  N  N614  1  0.84472736  0.38499942  0.73533231  1
  C  C615  1  0.79213438  0.26664671  0.94564948  1
  H  H616  1  0.95999817  0.39675268  0.95215723  1
  H  H617  1  0.66443490  0.35936798  0.75151304  1
  H  H618  1  0.84010846  0.29327351  0.69242050  1
  C  C619  1  0.81984750  0.47743671  0.71879643  1
  C  C620  1  0.54521408  0.45870217  0.67730014  1
  C  C621  1  0.51308672  0.34251472  0.68355844  1
  C  C622  1  0.74828034  0.49802632  0.98161125  1
  C  C623  1  0.85276392  0.49610666  0.96845402  1
  C  C624  1  0.64628753  0.43590569  0.69419609  1
  C  C625  1  0.73585103  0.40967238  0.72986337  1
  H  H626  1  0.97685727  0.29018910  0.56653634  1
  C  C627  1  0.73490564  0.28510146  0.94579366  1
  C  C628  1  0.99430386  0.29942925  0.85841502  1
  C  C629  1  0.67121929  0.48367819  0.66797173  1
  C  C630  1  0.83330717  0.28516177  0.99338827  1
  H  H631  1  0.72339681  0.32053723  0.97553558  1
  C  C632  1  0.97834497  0.48567330  0.54822391  1
  C  C633  1  0.86295732  0.33474924  0.99304023  1
  H  H634  1  0.93701633  0.49791642  0.56962799  1
  O  O635  1  0.93929523  0.49948140  0.89382378  1
  H  H636  1  0.64898559  0.26744246  0.91580821  1
  C  C637  1  0.69360875  0.25536964  0.91525152  1
  C  C638  1  0.96773218  0.41531162  0.99663640  1
  H  H639  1  0.89531609  0.49834681  0.98766004  1
  C  C640  1  0.70200595  0.61565977  0.29424713  1
  C  C641  1  0.79537976  0.74986233  0.47127683  1
  C  C642  1  0.56177751  0.72128243  0.31761364  1
  H  H643  1  0.93917181  0.60914450  0.47980393  1
  H  H644  1  0.83825598  0.53352636  0.26997052  1
  C  C645  1  0.73539008  0.63887541  0.25025732  1
  H  H646  1  0.76632479  0.61055990  0.22962423  1
  H  H647  1  0.91215579  0.57722320  0.32979615  1
  C  C648  1  0.87895630  0.54300863  0.24896915  1
  C  C649  1  0.97177547  0.58741276  0.25687431  1
  C  C650  1  0.56970698  0.71562926  0.05555498  1
  C  C651  1  0.68836757  0.72810507  0.26877836  1
  H  H652  1  0.56595594  0.69216373  0.27931605  1
  O  O653  1  0.61960015  0.55036608  0.47941706  1
  C  C654  1  0.51313399  0.70308142  0.06480819  1
  C  C655  1  0.86361606  0.59185550  0.42727136  1
  C  C656  1  0.84136655  0.65024079  0.43357414  1
  O  O657  1  0.79940255  0.68946507  0.16748575  1
  H  H658  1  0.64465185  0.63030793  0.36261267  1
  H  H659  1  0.80430588  0.66495378  0.34864276  1
  O  O660  1  0.50563253  0.56877068  0.09736284  1
  C  C661  1  0.93820221  0.55304892  0.16194811  1
  O  O662  1  0.56480869  0.54698085  0.02722983  1
  C  C663  1  0.51341329  0.55729199  0.04745232  1
  C  C664  1  0.97809692  0.58102419  0.19536847  1
  C  C665  1  0.60419157  0.68416716  0.00934288  1
  O  O666  1  0.73835907  0.52566046  0.27307720  1
  H  H667  1  0.79229633  0.55835063  0.37078716  1
  C  C668  1  0.65449933  0.70460257  0.31138835  1
  C  C669  1  0.76724497  0.71760341  0.19569864  1
  C  C670  1  0.72941621  0.69514006  0.24218540  1
  H  H671  1  0.94877558  0.54610955  0.11724998  1
  C  C672  1  0.78665752  0.73086114  0.41323478  1
  C  C673  1  0.81005267  0.68109344  0.39325228  1
  C  C674  1  0.92053027  0.56984491  0.28364298  1
  C  C675  1  0.71292789  0.55714556  0.30654383  1
  C  C676  1  0.83371724  0.55133558  0.39299374  1
  C  C677  1  0.66496360  0.64808323  0.32427073  1
  C  C678  1  0.91578144  0.57586729  0.45532396  1
  O  O679  1  0.69221815  0.53997108  0.35323879  1
  C  C680  1  0.84254802  0.50631367  0.09697933  1
  C  C681  1  0.88942361  0.53179153  0.19100225  1
  C  C682  1  0.93242484  0.51938928  0.45402153  1
  H  H683  1  0.87818613  0.51518135  0.06825811  1
  C  C684  1  0.50903628  0.74537840  0.33317573  1
  C  C685  1  0.84951051  0.66841240  0.49254669  1
  N  N686  1  0.61089706  0.73376731  0.33720909  1
  C  C687  1  0.84062651  0.50547020  0.15883382  1
  C  C688  1  0.66761272  0.53861649  0.47981208  1
  O  O689  1  0.65368445  0.68673623  0.00388136  1
  H  H690  1  0.77594392  0.53352115  0.52024932  1
  C  C691  1  0.75256075  0.64306474  0.60692989  1
  H  H692  1  0.52065096  0.52129212  0.93434957  1
  O  O693  1  0.83354594  0.72179686  0.83254749  1
  C  C694  1  0.89744400  0.51514910  0.87191726  1
  C  C695  1  0.66831746  0.61992335  0.54332262  1
  C  C696  1  0.75430952  0.56614545  0.53825206  1
  H  H697  1  0.55837039  0.50210839  0.67756868  1
  C  C698  1  0.96201159  0.67661689  0.84883185  1
  Cu  Cu699  1  0.88754538  0.61124674  0.79243862  1
  Cu  Cu700  1  0.60228055  0.58107776  0.96162719  1
  C  C701  1  0.72595622  0.50033970  0.67817495  1
  O  O702  1  0.63988672  0.51950148  0.93787848  1
  O  O703  1  0.67803479  0.54387234  0.85472996  1
  H  H704  1  0.85991370  0.73259029  0.66659688  1
  H  H705  1  0.77168903  0.67177479  0.63528021  1
  H  H706  1  0.60088864  0.70422578  0.65458638  1
  O  O707  1  0.57466515  0.64710260  0.97832610  1
  N  N708  1  0.85058353  0.57755340  0.71821780  1
  C  C709  1  0.83749911  0.58256570  0.60273251  1
  O  O710  1  0.85373120  0.60972099  0.64698721  1
  O  O711  1  0.54319247  0.63575590  0.59478862  1
  C  C712  1  0.69794041  0.65416308  0.58404293  1
  O  O713  1  0.86499727  0.54636245  0.58106004  1
  C  C714  1  0.74317057  0.51625195  0.92574183  1
  H  H715  1  0.64686006  0.50867849  0.63755284  1
  C  C716  1  0.77737261  0.59680947  0.58327558  1
  C  C717  1  0.84398562  0.50833052  0.90927761  1
  H  H718  1  0.62375229  0.63120568  0.53208605  1
  C  C719  1  0.52354443  0.62413543  0.64198549  1
  O  O720  1  0.88862060  0.53459184  0.82186555  1
  O  O721  1  0.54429702  0.58976701  0.67733710  1
  O  O722  1  0.95603696  0.62944326  0.82601292  1
  C  C723  1  0.68300634  0.52656713  0.90324370  1
  N  N724  1  0.67044670  0.69986536  0.60533313  1
  C  C725  1  0.84600663  0.71709319  0.78004293  1
  H  H726  1  0.70445244  0.74499830  0.53417601  1
  H  H727  1  0.74532571  0.53851581  0.66058741  1
  H  H728  1  0.78159199  0.53106217  0.84735570  1
  C  C729  1  0.58711555  0.74502052  0.67297756  1
  C  C730  1  0.69912587  0.57680646  0.52236248  1
  O  O731  1  0.93302138  0.69812264  0.88791688  1
  O  O732  1  0.87698237  0.68108443  0.75829241  1
  C  C733  1  0.67535828  0.74490801  0.57288597  1
  N  N734  1  0.83480195  0.52888671  0.71716642  1
  C  C735  1  0.79134179  0.51943907  0.88960878  1
  H  H736  1  0.54622291  0.71553355  0.74860628  1
  H  H737  1  0.83356767  0.73107723  0.55578631  1
  H  H738  1  0.87343429  0.63832768  0.51902658  1
  C  C739  1  0.82658645  0.71719556  0.51280365  1
  N  N740  1  0.71409395  0.87078314  0.23733829  1
  H  H741  1  0.56260351  0.81774581  0.25720692  1
  C  C742  1  0.54891177  0.81985246  0.40160852  1
  N  N743  1  0.72246475  0.82082685  0.46652301  1
  N  N744  1  0.75868115  0.89199319  0.09529486  1
  N  N745  1  0.76518883  0.87811027  0.24112449  1
  C  C746  1  0.76449330  0.79606493  0.49737127  1
  C  C747  1  0.93049127  0.85593103  0.19340282  1
  Cu  Cu748  1  0.81556222  0.82395294  0.19183143  1
  N  N749  1  0.67844137  0.84476100  0.45552915  1
  O  O750  1  0.96216998  0.85712505  0.23492715  1
  C  C751  1  0.66824984  0.90019948  0.04298593  1
  C  C752  1  0.61156568  0.88857173  0.05703690  1
  C  C753  1  0.64283843  0.83076073  0.18404053  1
  C  C754  1  0.54098305  0.85717145  0.44688504  1
  C  C755  1  0.57022211  0.97017028  0.31449220  1
  C  C756  1  0.92713538  0.82433487  0.03359374  1
  C  C757  1  0.65970998  0.86091725  0.23384854  1
  H  H758  1  0.50365024  0.96737204  0.45828561  1
  H  H759  1  0.67070563  0.81056972  0.15588715  1
  C  C760  1  0.51726455  0.94107406  0.31272364  1
  C  C761  1  0.94545988  0.83633193  0.13409550  1
  C  C762  1  0.70775413  0.91442352  0.09230971  1
  N  N763  1  0.80289210  0.88346681  0.12300205  1
  C  C764  1  0.61476897  0.89184474  0.26827163  1
  C  C765  1  0.56530178  0.85907236  0.27336811  1
  C  C766  1  0.61907870  0.94656510  0.29125041  1
  O  O767  1  0.87635890  0.86502675  0.19993042  1
  C  C768  1  0.97893669  0.80045833  0.02441260  1
  H  H769  1  0.60003320  0.89244722  0.10328726  1
  H  H770  1  0.65794425  0.96965126  0.29296519  1
  H  H771  1  0.64715802  0.75873165  0.08307852  1
  H  H772  1  0.57743355  0.88384960  0.45868939  1
  O  O773  1  0.76150763  0.77139703  0.19060578  1
  N  N774  1  0.59235221  0.81932611  0.17159786  1
  N  N775  1  0.72508141  0.97309046  0.17295321  1
  C  C776  1  0.69013559  0.95534897  0.13296077  1
  H  H777  1  0.58707800  0.81669378  0.37474350  1
  C  C778  1  0.57319045  0.86685957  0.01538116  1
  Cu  Cu779  1  0.79688061  0.93186617  0.18690752  1
  C  C780  1  0.57164909  0.78522149  0.13029200  1
  H  H781  1  0.86442471  0.85931896  0.09277844  1
  C  C782  1  0.90799207  0.84124450  0.08807930  1
  C  C783  1  0.51640159  0.88404314  0.29313973  1
  H  H784  1  0.69091799  0.77215511  0.26527725  1
  H  H785  1  0.53172579  0.85330086  0.02767905  1
  C  C786  1  0.99808611  0.80940508  0.12634330  1
  C  C787  1  0.60179352  0.75246617  0.08858867  1
  C  C788  1  0.51466519  0.77068030  0.14083289  1
  C  C789  1  0.52904579  0.98017894  0.10962966  1
  H  H790  1  0.65113813  0.98072183  0.13100228  1
  C  C791  1  0.50368365  0.78408743  0.38286428  1
  C  C792  1  0.51923137  0.96417056  0.04771775  1
  O  O793  1  0.51248045  0.95461850  0.14901123  1
  H  H794  1  0.75988628  0.75255559  0.38403999  1
  C  C795  1  0.55223894  0.98662282  0.00358290  1
  H  H796  1  0.73277806  0.90611391  0.97502019  1
  N  N797  1  0.64303848  0.83496606  0.55717110  1
  C  C798  1  0.76680512  0.81054737  0.55680018  1
  C  C799  1  0.53409532  0.80308273  0.81367621  1
  C  C800  1  0.54322101  0.97381706  0.94538693  1
  H  H801  1  0.57298264  0.89859249  0.74363425  1
  C  C802  1  0.51868451  0.79467941  0.93570360  1
  C  C803  1  0.59766322  0.85866511  0.95979406  1
  C  C804  1  0.60709619  0.84866674  0.67328831  1
  H  H805  1  0.74088818  0.84237294  0.57770273  1
  C  C806  1  0.71288767  0.87744722  0.76969786  1
  O  O807  1  0.69126590  0.91754314  0.74558390  1
  H  H808  1  0.67047173  0.87051599  0.89856679  1
  C  C809  1  0.57042578  0.83298440  0.85225606  1
  C  C810  1  0.55143434  0.80705844  0.75013779  1
  C  C811  1  0.75302382  0.83334897  0.73309464  1
  C  C812  1  0.57454576  0.85607630  0.72382797  1
  O  O813  1  0.91941277  0.81450669  0.93031966  1
  H  H814  1  0.63251970  0.88266236  0.65496816  1
  O  O815  1  0.70546409  0.86939895  0.82156254  1
  H  H816  1  0.60553930  0.85589952  0.83707733  1
  C  C817  1  0.56267389  0.82946654  0.91236712  1
  C  C818  1  0.75665202  0.83596982  0.67513243  1
  H  H819  1  0.73709745  0.86924538  0.65166689  1
  C  C820  1  0.65389844  0.87665518  0.94231455  1
  H  H821  1  0.51701397  0.79519353  0.98386893  1
  H  H822  1  0.77065095  0.79521426  0.81566944  1
  C  C823  1  0.89405390  0.83155160  0.97888663  1
  C  C824  1  0.64400238  0.79124897  0.59382036  1
  C  C825  1  0.68839768  0.89699761  0.98498397  1
  N  N826  1  0.64452099  0.87001284  0.51898906  1
  C  C827  1  0.60927657  0.79522948  0.64806178  1
  C  C828  1  0.78085057  0.79741078  0.76908711  1
  N  N829  1  0.80105687  0.78591183  0.59123209  1
  C  C830  1  0.79386502  0.79599131  0.64785315  1
  C  C831  1  0.50025973  0.94223191  0.92730876  1
  H  H832  1  0.99215383  0.77838822  0.88129497  1
  C  C833  1  0.81782907  0.75850757  0.74280953  1
  H  H834  1  0.99179154  0.79287358  0.97969300  1
  O  O835  1  0.85076836  0.85494310  0.97884820  1
  O  O836  1  0.57535197  0.99876685  0.84569659  1
  C  C837  1  0.55856784  0.75202246  0.72499879  1
  C  C838  1  0.82598083  0.76122030  0.68388114  1
  Cu  Cu839  1  0.87986977  0.76167643  0.88425732  1
