# generated using pymatgen
data_Cu3H24C48(N5O6)2
_symmetry_space_group_name_H-M   'P 1'
_cell_length_a   18.83152055
_cell_length_b   26.18038680
_cell_length_c   20.54280111
_cell_angle_alpha   90.00000000
_cell_angle_beta   90.00000000
_cell_angle_gamma   90.00000000
_symmetry_Int_Tables_number   1
_chemical_formula_structural   Cu3H24C48(N5O6)2
_chemical_formula_sum   'Cu24 H192 C384 N80 O96'
_cell_volume   10127.93973612
_cell_formula_units_Z   8
loop_
 _symmetry_equiv_pos_site_id
 _symmetry_equiv_pos_as_xyz
  1  'x, y, z'
loop_
 _atom_site_type_symbol
 _atom_site_label
 _atom_site_symmetry_multiplicity
 _atom_site_fract_x
 _atom_site_fract_y
 _atom_site_fract_z
 _atom_site_occupancy
  N  N0  1  0.20524970  0.14907250  0.47110173  1
  H  H1  1  0.40730843  0.20539895  0.24389862  1
  C  C2  1  0.22473165  0.11574015  0.08116929  1
  C  C3  1  0.41760701  0.05905410  0.29224582  1
  H  H4  1  0.25065857  0.01364191  0.42355762  1
  O  O5  1  0.04403569  0.15298771  0.20775045  1
  C  C6  1  0.46571783  0.15168486  0.42866767  1
  C  C7  1  0.48104127  0.04277531  0.19016724  1
  C  C8  1  0.39956002  0.22721051  0.47409678  1
  C  C9  1  0.24002315  0.10945803  0.45592992  1
  H  H10  1  0.04404911  0.17788033  0.01793257  1
  O  O11  1  0.29874123  0.07709714  0.15763850  1
  C  C12  1  0.30007784  0.07619415  0.47324921  1
  N  N13  1  0.01673644  0.20613708  0.35227444  1
  C  C14  1  0.06209818  0.04692544  0.31642021  1
  C  C15  1  0.10527875  0.15130860  0.10216963  1
  H  H16  1  0.00194042  0.22845852  0.46885400  1
  H  H17  1  0.07167778  0.13270146  0.38868209  1
  H  H18  1  0.13193431  0.18569977  0.31543005  1
  C  C19  1  0.18256758  0.20611784  0.32883382  1
  C  C20  1  0.30826254  0.21525587  0.35609966  1
  C  C21  1  0.41110913  0.19093715  0.42081403  1
  H  H22  1  0.47637628  0.14624975  0.17423778  1
  H  H23  1  0.17470763  0.12312628  0.17582068  1
  H  H24  1  0.26152474  0.14945247  0.31042296  1
  C  C25  1  0.38738942  0.09521319  0.33422385  1
  C  C26  1  0.22142246  0.13355349  0.01823677  1
  N  N27  1  0.36940591  0.18592398  0.36501246  1
  C  C28  1  0.44823651  0.13353485  0.21659990  1
  N  N29  1  0.38660791  0.02884931  0.05312498  1
  C  C30  1  0.16971788  0.13025516  0.12395266  1
  C  C31  1  0.39044817  0.14859805  0.31866608  1
  N  N32  1  0.11771982  0.11449681  0.38488393  1
  H  H33  1  0.36285928  0.08162343  0.37968537  1
  C  C34  1  0.04598397  0.16441259  0.15240686  1
  C  C35  1  0.12426549  0.06906187  0.34337429  1
  H  H36  1  0.42226348  0.01881903  0.30341088  1
  C  C37  1  0.29080412  0.08743142  0.10020320  1
  C  C38  1  0.44833078  0.08159978  0.23546756  1
  N  N39  1  0.30368916  0.21565815  0.13442491  1
  H  H40  1  0.47235219  0.12472318  0.38828086  1
  C  C41  1  0.25150176  0.18871543  0.32454558  1
  H  H42  1  0.23975345  0.05909644  0.35991806  1
  C  C43  1  0.41495463  0.16735394  0.25825322  1
  C  C44  1  0.09494936  0.16133943  0.03776731  1
  O  O45  1  0.34175601  0.08767115  0.05840491  1
  C  C46  1  0.19102405  0.04531336  0.33456195  1
  C  C47  1  0.07017336  0.00501227  0.27558012  1
  C  C48  1  0.19496873  0.00480116  0.29096836  1
  C  C49  1  0.42006856  0.23092289  0.07475183  1
  C  C50  1  0.17214053  0.12674918  0.42582326  1
  O  O51  1  0.47099696  0.20572478  0.09174593  1
  C  C52  1  0.29511190  0.02455339  0.45258606  1
  C  C53  1  0.40420104  0.23217215  0.00343295  1
  H  H54  1  0.00832610  0.06106978  0.32883559  1
  N  N55  1  0.25911447  0.24132227  0.16250058  1
  H  H56  1  0.10912239  0.22919592  0.14554821  1
  C  C57  1  0.44374802  0.01005132  0.94293723  1
  H  H58  1  0.06544707  0.13454587  0.74035791  1
  H  H59  1  0.48816651  0.17679154  0.97725078  1
  C  C60  1  0.24855897  0.12368191  0.73012334  1
  C  C61  1  0.27417725  0.16763802  0.76436982  1
  C  C62  1  0.14816115  0.18234426  0.78899398  1
  C  C63  1  0.44706981  0.22357893  0.52445597  1
  H  H64  1  0.15933911  0.07893496  0.68637788  1
  H  H65  1  0.26097179  0.18182285  0.55539511  1
  C  C66  1  0.33867518  0.18514242  0.63088130  1
  C  C67  1  0.17447955  0.11339012  0.71468680  1
  C  C68  1  0.10767903  0.24313231  0.50589794  1
  H  H69  1  0.04551943  0.19110438  0.67585021  1
  C  C70  1  0.22137255  0.19373281  0.79706924  1
  C  C71  1  0.36027557  0.09438086  0.50976431  1
  H  H72  1  0.09160434  0.21686926  0.95215611  1
  N  N73  1  0.15590773  0.16084326  0.93037549  1
  C  C74  1  0.28677492  0.04126017  0.69197686  1
  C  C75  1  0.28878536  0.20686977  0.59058274  1
  C  C76  1  0.01571731  0.21144092  0.57329852  1
  C  C77  1  0.06561223  0.20295573  0.62750765  1
  C  C78  1  0.34948399  0.08202029  0.77803131  1
  H  H79  1  0.44369351  0.05198540  0.72245289  1
  H  H80  1  0.36214558  0.13515884  0.51882655  1
  C  C81  1  0.11184445  0.19551993  0.91062801  1
  C  C82  1  0.41873095  0.05864193  0.77047510  1
  C  C83  1  0.41720229  0.04017864  0.88681088  1
  C  C84  1  0.45042924  0.03762599  0.82472772  1
  H  H85  1  0.34751648  0.14219675  0.63132792  1
  N  N86  1  0.47447242  0.18350374  0.84856761  1
  C  C87  1  0.25805364  0.04288032  0.62689851  1
  C  C88  1  0.10578136  0.20794730  0.84203043  1
  C  C89  1  0.41283249  0.06014682  0.52836108  1
  H  H90  1  0.33126063  0.17324021  0.77392229  1
  C  C91  1  0.13368816  0.22020779  0.62225189  1
  H  H92  1  0.00395595  0.02834645  0.90805010  1
  C  C93  1  0.12232756  0.14366651  0.74453051  1
  N  N94  1  0.30187263  0.08672951  0.72521334  1
  C  C95  1  0.37853514  0.21753929  0.67363911  1
  C  C96  1  0.45232631  0.18646244  0.78995610  1
  C  C97  1  0.44574076  0.20344981  0.95991121  1
  H  H98  1  0.25386177  0.07652814  0.59701738  1
  C  C99  1  0.03823976  0.22751661  0.50976453  1
  H  H100  1  0.32476231  0.06953442  0.94384831  1
  C  C101  1  0.31671157  0.08544754  0.84056074  1
  C  C102  1  0.35015697  0.06724192  0.89478298  1
  C  C103  1  0.43333194  0.20757494  0.89290096  1
  H  H104  1  0.26628855  0.10841096  0.84835791  1
  H  H105  1  0.17121740  0.21636161  0.66350069  1
  C  C106  1  0.42606409  0.19605416  0.72363742  1
  C  C107  1  0.15626246  0.24057472  0.56108206  1
  H  H108  1  0.45166455  0.07465022  0.56180204  1
  C  C109  1  0.15585016  0.15464330  0.99578339  1
  N  N110  1  0.47955927  0.16886101  0.73586807  1
  C  C111  1  0.38287145  0.24397656  0.86686385  1
  H  H112  1  0.23652343  0.22516579  0.83101173  1
  H  H113  1  0.26160775  0.12408599  0.98255953  1
  N  N114  1  0.05105929  0.23720050  0.82510021  1
  H  H115  1  0.37229511  0.24973967  0.81448012  1
  C  C116  1  0.40508148  0.00825281  0.50831581  1
  N  N117  1  0.41421474  0.02081526  0.99916547  1
  H  H118  1  0.34710283  0.29135587  0.39022432  1
  C  C119  1  0.02341995  0.29275875  0.16546711  1
  H  H120  1  0.06119156  0.28516046  0.06199429  1
  H  H121  1  0.19718404  0.42233095  0.29847497  1
  C  C122  1  0.01749458  0.29140316  0.09695197  1
  C  C123  1  0.20846065  0.26966043  0.19177189  1
  C  C124  1  0.10135485  0.27682600  0.35364920  1
  N  N125  1  0.02417962  0.35756090  0.38444697  1
  N  N126  1  0.26454898  0.39808069  0.02282267  1
  N  N127  1  0.12855009  0.40206571  0.40511120  1
  C  C128  1  0.37653447  0.47587958  0.27197323  1
  C  C129  1  0.23028956  0.39110275  0.27811210  1
  N  N130  1  0.08790713  0.29223261  0.19418425  1
  H  H131  1  0.27267533  0.40787824  0.41075570  1
  N  N132  1  0.10475011  0.32549367  0.37159201  1
  C  C133  1  0.31780759  0.30594830  0.24575435  1
  C  C134  1  0.13578189  0.25992429  0.17537725  1
  C  C135  1  0.30645743  0.39745882  0.27108443  1
  C  C136  1  0.24253937  0.30788441  0.23358782  1
  H  H137  1  0.26546813  0.37763589  0.16177011  1
  N  N138  1  0.32026273  0.44810116  0.24706810  1
  C  C139  1  0.19747489  0.34958985  0.25749852  1
  C  C140  1  0.12819768  0.49314509  0.45138394  1
  H  H141  1  0.42353931  0.46407222  0.17836036  1
  C  C142  1  0.34834958  0.35263438  0.26483175  1
  H  H143  1  0.13996290  0.34734517  0.26550182  1
  C  C144  1  0.34282195  0.46026416  0.46872063  1
  O  O145  1  0.44658226  0.32632471  0.41495406  1
  C  C146  1  0.29167149  0.45893097  0.18488241  1
  C  C147  1  0.28286295  0.48048721  0.05297719  1
  N  N148  1  0.04131774  0.40024389  0.40187968  1
  C  C149  1  0.26803760  0.42797211  0.07667929  1
  N  N150  1  0.27351195  0.47228670  0.45997225  1
  H  H151  1  0.40895687  0.35710038  0.26577439  1
  C  C152  1  0.27117262  0.41728259  0.14377653  1
  C  C153  1  0.37827621  0.49701669  0.33726038  1
  H  H154  1  0.33001612  0.49863654  0.36711728  1
  H  H155  1  0.34555661  0.38232275  0.43149413  1
  C  C156  1  0.44972691  0.40797062  0.46441879  1
  H  H157  1  0.22185553  0.32841259  0.39293759  1
  C  C158  1  0.16097816  0.44324572  0.42438057  1
  H  H159  1  0.05688047  0.49325238  0.36865252  1
  C  C160  1  0.23728199  0.43846866  0.42946694  1
  C  C161  1  0.37798764  0.41433505  0.45188861  1
  C  C162  1  0.23335380  0.28916742  0.37810995  1
  H  H163  1  0.35015980  0.27044963  0.23606779  1
  H  H164  1  0.31268934  0.27798359  0.01333986  1
  C  C165  1  0.30148837  0.26788461  0.37880064  1
  H  H166  1  0.25528013  0.35925742  0.01314296  1
  C  C167  1  0.48157388  0.36044479  0.43686568  1
  C  C168  1  0.43608764  0.48006005  0.22875634  1
  C  C169  1  0.03054638  0.25310305  0.34396453  1
  H  H170  1  0.12381610  0.26118110  0.46230212  1
  H  H171  1  0.14614216  0.35136877  0.48667799  1
  H  H172  1  0.35633197  0.25513664  0.47430332  1
  O  O173  1  0.37768864  0.25173698  0.11781546  1
  C  C174  1  0.17623380  0.25725764  0.35365614  1
  C  C175  1  0.48637764  0.44689962  0.49760093  1
  C  C176  1  0.17566656  0.46663349  0.79756217  1
  C  C177  1  0.11798819  0.36126693  0.67650998  1
  C  C178  1  0.17436437  0.33388190  0.65062370  1
  Cu  Cu179  1  0.24115312  0.39807714  0.87789837  1
  C  C180  1  0.13787738  0.35209542  0.53816438  1
  C  C181  1  0.06629082  0.38121956  0.63168044  1
  C  C182  1  0.28889607  0.30492422  0.88091462  1
  O  O183  1  0.17917521  0.45898609  0.74052095  1
  C  C184  1  0.04993380  0.48741577  0.78858663  1
  C  C185  1  0.44879784  0.49029271  0.51568103  1
  H  H186  1  0.40915746  0.29538854  0.70565108  1
  H  H187  1  0.43779420  0.25115463  0.56474265  1
  H  H188  1  0.31656849  0.33611318  0.62742502  1
  C  C189  1  0.10763522  0.48324512  0.82903997  1
  C  C190  1  0.37645371  0.27333498  0.67016719  1
  H  H191  1  0.04387936  0.39381335  0.52798482  1
  H  H192  1  0.11025761  0.36649740  0.72913967  1
  C  C193  1  0.07871898  0.37577419  0.56236856  1
  O  O194  1  0.28021219  0.30674555  0.82276587  1
  C  C195  1  0.34212077  0.26938092  0.91088740  1
  O  O196  1  0.26164619  0.33639622  0.92195128  1
  C  C197  1  0.27411420  0.26006213  0.59888083  1
  C  C198  1  0.32279777  0.29439175  0.63164026  1
  H  H199  1  0.21641267  0.31811830  0.68289153  1
  C  C200  1  0.18423971  0.32478827  0.58226858  1
  O  O201  1  0.23087784  0.46211589  0.83660465  1
  N  N202  1  0.26180552  0.43696433  0.96003645  1
  C  C203  1  0.35042322  0.26234797  0.97946119  1
  H  H204  1  0.19000921  0.49400133  0.54366880  1
  H  H205  1  0.05421560  0.47883575  0.73647683  1
  C  C206  1  0.27391572  0.48231644  0.98149550  1
  N  N207  1  0.21214505  0.27588958  0.56647701  1
  H  H208  1  0.15339449  0.49743947  0.92518420  1
  C  C209  1  0.10649878  0.49590533  0.89484861  1
  C  C210  1  0.12338435  0.66439807  0.42739730  1
  C  C211  1  0.05091462  0.56478786  0.42706739  1
  O  O212  1  0.09165777  0.51376900  0.02268361  1
  C  C213  1  0.18504736  0.64293728  0.32696085  1
  C  C214  1  0.46758045  0.69587564  0.09706946  1
  O  O215  1  0.34152079  0.71448785  0.39296468  1
  H  H216  1  0.30490310  0.56048240  0.07556198  1
  H  H217  1  0.22419076  0.65158329  0.02425630  1
  C  C218  1  0.30344175  0.50963705  0.16053062  1
  C  C219  1  0.44171730  0.52002061  0.35446060  1
  O  O220  1  0.39417515  0.60494437  0.10378564  1
  H  H221  1  0.34612062  0.72012949  0.21679775  1
  C  C222  1  0.15255631  0.69448242  0.23383778  1
  C  C223  1  0.41193458  0.68860637  0.13922347  1
  H  H224  1  0.21297814  0.61796829  0.29307972  1
  Cu  Cu225  1  0.47357266  0.73516464  0.47392674  1
  C  C226  1  0.16766923  0.63087000  0.38980833  1
  C  C227  1  0.09596124  0.72148310  0.20321444  1
  O  O228  1  0.05255940  0.66766473  0.00902588  1
  O  O229  1  0.04990288  0.61093562  0.24760580  1
  C  C230  1  0.11429367  0.72689393  0.34348914  1
  H  H231  1  0.06842328  0.74019831  0.43727302  1
  H  H232  1  0.31342182  0.54094884  0.19363949  1
  O  O233  1  0.31868341  0.63678483  0.17751019  1
  C  C234  1  0.15218665  0.68936373  0.30631313  1
  C  C235  1  0.09943845  0.71362511  0.40683898  1
  C  C236  1  0.29883939  0.52156426  0.09466326  1
  H  H237  1  0.19040695  0.59546023  0.41211216  1
  H  H238  1  0.08285485  0.72765070  0.15165807  1
  N  N239  1  0.24380098  0.67005321  0.14693060  1
  C  C240  1  0.37409318  0.63788290  0.14026991  1
  H  H241  1  0.49034660  0.52567899  0.09506361  1
  N  N242  1  0.20083745  0.67847122  0.19111033  1
  H  H243  1  0.01047918  0.58316012  0.39423749  1
  C  C244  1  0.38851056  0.72816015  0.18027232  1
  N  N245  1  0.04518552  0.73970529  0.23977984  1
  C  C246  1  0.07636830  0.51713354  0.40929775  1
  N  N247  1  0.09578102  0.64177485  0.48318123  1
  H  H248  1  0.48516132  0.66625931  0.06171404  1
  C  C249  1  0.08731604  0.58790400  0.48136444  1
  H  H250  1  0.44690978  0.54122055  0.39863841  1
  O  O251  1  0.23039204  0.74090596  0.04314421  1
  H  H252  1  0.48831283  0.59782736  0.18381219  1
  C  C253  1  0.37862462  0.50068249  0.49830102  1
  C  C254  1  0.02663118  0.72174116  0.78847196  1
  C  C255  1  0.27931902  0.66408853  0.83894991  1
  H  H256  1  0.04074123  0.73552905  0.83700745  1
  C  C257  1  0.25894676  0.61275989  0.93311890  1
  H  H258  1  0.27859822  0.53445597  0.88694883  1
  C  C259  1  0.12999443  0.56153212  0.52855579  1
  H  H260  1  0.03870303  0.68603057  0.89770892  1
  C  C261  1  0.27066988  0.61554571  0.86445718  1
  C  C262  1  0.07835133  0.66917677  0.53986452  1
  H  H263  1  0.27140466  0.58144435  0.83333870  1
  N  N264  1  0.26253215  0.57037269  0.97271161  1
  O  O265  1  0.42040275  0.72849164  0.96196404  1
  C  C266  1  0.03159500  0.64622389  0.58674145  1
  H  H267  1  0.46217819  0.68916203  0.86208547  1
  H  H268  1  0.14936183  0.57957393  0.57691175  1
  O  O269  1  0.27954406  0.62873436  0.73687575  1
  O  O270  1  0.31987718  0.70726445  0.73827978  1
  C  C271  1  0.29282238  0.66569231  0.76620884  1
  H  H272  1  0.14045146  0.74074865  0.51814179  1
  H  H273  1  0.34960711  0.53451314  0.51484120  1
  O  O274  1  0.46017384  0.56658372  0.57373435  1
  C  C275  1  0.01213956  0.66932424  0.64380095  1
  C  C276  1  0.24141305  0.65629726  0.97278026  1
  C  C277  1  0.10741245  0.71849662  0.55266376  1
  C  C278  1  0.25159841  0.70356194  0.94518108  1
  C  C279  1  0.03945720  0.50856796  0.91901149  1
  C  C280  1  0.05628820  0.71199679  0.66088962  1
  C  C281  1  0.27482614  0.70612131  0.88030520  1
  C  C282  1  0.27544012  0.52992206  0.94082519  1
  C  C283  1  0.15130454  0.51222922  0.51247633  1
  C  C284  1  0.06741717  0.72700602  0.73102141  1
  C  C285  1  0.09479947  0.73925160  0.61348564  1
  C  C286  1  0.49272593  0.52909534  0.55103023  1
  Cu  Cu287  1  0.49801503  0.61247349  0.63511604  1
  C  C288  1  0.03936625  0.52459531  0.99063721  1
  C  C289  1  0.47995022  0.72600313  0.84094025  1
  O  O290  1  0.49452118  0.63844523  0.78371682  1
  H  H291  1  0.00770163  0.61104316  0.56880197  1
  N  N292  1  0.13066247  0.74414481  0.74860704  1
  C  C293  1  0.24301925  0.74987420  0.98645118  1
  H  H294  1  0.27830101  0.74494507  0.86235453  1
  C  C295  1  0.18066756  0.87228507  0.37803994  1
  C  C296  1  0.28236970  0.79382905  0.40493945  1
  C  C297  1  0.34126930  0.75625652  0.41698725  1
  N  N298  1  0.40474932  0.88006581  0.06115017  1
  N  N299  1  0.34453025  0.89579728  0.06267739  1
  O  O300  1  0.42098475  0.86073678  0.21639241  1
  C  C301  1  0.39817483  0.81519325  0.22461322  1
  N  N302  1  0.42019665  0.95744420  0.16600755  1
  Cu  Cu303  1  0.33549598  0.96606372  0.09766168  1
  O  O304  1  0.18883338  0.82742313  0.21794520  1
  C  C305  1  0.42419970  0.77401724  0.17720484  1
  Cu  Cu306  1  0.34534665  0.90993124  0.21142594  1
  O  O307  1  0.25452054  0.97163703  0.03250730  1
  H  H308  1  0.31416643  0.83292298  0.49000557  1
  Cu  Cu309  1  0.47935579  0.91965220  0.10385214  1
  H  H310  1  0.34750747  0.95033853  0.44665536  1
  N  N311  1  0.19627030  0.91116140  0.47855142  1
  H  H312  1  0.14271376  0.90130799  0.36617675  1
  O  O313  1  0.36265572  0.80259589  0.27011023  1
  C  C314  1  0.21871457  0.87089753  0.43899608  1
  H  H315  1  0.13543910  0.94724644  0.23359108  1
  C  C316  1  0.48149543  0.78424441  0.13673863  1
  C  C317  1  0.24273356  0.79362149  0.34627448  1
  O  O318  1  0.27917720  0.95546788  0.22367895  1
  O  O319  1  0.10312051  0.86540779  0.26868968  1
  C  C320  1  0.34730557  0.98989126  0.46820353  1
  C  C321  1  0.19897973  0.83445511  0.33713479  1
  H  H322  1  0.25410240  0.76667354  0.30847035  1
  C  C323  1  0.27494809  0.83176331  0.44930603  1
  C  C324  1  0.26974062  0.98274500  0.27717841  1
  C  C325  1  0.15777317  0.83966111  0.26822603  1
  H  H326  1  0.44758090  0.96977710  0.38865853  1
  C  C327  1  0.13496078  0.98331401  0.26274090  1
  O  O328  1  0.39064619  0.77003620  0.45892558  1
  H  H329  1  0.09907587  0.76526369  0.32291431  1
  O  O330  1  0.31591901  0.98416480  0.31726630  1
  H  H331  1  0.49109748  0.89211088  0.31949376  1
  C  C332  1  0.47430691  0.93654249  0.41014108  1
  N  N333  1  0.44702168  0.99864168  0.18178405  1
  C  C334  1  0.49844819  0.89646982  0.37310355  1
  C  C335  1  0.00093375  0.98683348  0.24267778  1
  O  O336  1  0.00889842  0.95275423  0.20563515  1
  C  C337  1  0.48740619  0.93838796  0.47912506  1
  C  C338  1  0.48303673  0.95999585  0.93331999  1
  C  C339  1  0.43662734  0.76741984  0.93729068  1
  H  H340  1  0.22856448  0.81636602  0.57226722  1
  O  O341  1  0.20338216  0.81351602  0.80055785  1
  H  H342  1  0.48928724  0.85296573  0.87838564  1
  O  O343  1  0.30263118  0.81658600  0.74525033  1
  H  H344  1  0.36402441  0.96770744  0.96055089  1
  N  N345  1  0.27841742  0.85823585  0.63107321  1
  C  C346  1  0.49654325  0.81861010  0.84738426  1
  N  N347  1  0.26387469  0.81318019  0.61164241  1
  O  O348  1  0.17292558  0.91887764  0.99590584  1
  C  C349  1  0.34401484  0.93909338  0.92771192  1
  C  C350  1  0.25750447  0.90112741  0.59284628  1
  C  C351  1  0.36388246  0.88196564  0.83233047  1
  C  C352  1  0.23420937  0.93785755  0.99425784  1
  N  N353  1  0.19321005  0.75675031  0.75718388  1
  N  N354  1  0.46034899  0.92581243  0.89223997  1
  N  N355  1  0.05949275  0.93300017  0.92532673  1
  H  H356  1  0.44545398  0.94612210  0.74009908  1
  O  O357  1  0.25956591  0.79474794  0.96404174  1
  H  H358  1  0.28178137  0.91330005  0.72443296  1
  H  H359  1  0.19717505  0.87338300  0.89612147  1
  C  C360  1  0.44407435  0.96151394  0.63906101  1
  C  C361  1  0.26472418  0.95026718  0.62829615  1
  C  C362  1  0.26415404  0.83015313  0.79346559  1
  Cu  Cu363  1  0.27676996  0.76150315  0.68910775  1
  C  C364  1  0.22874719  0.89834520  0.52849801  1
  O  O365  1  0.42159403  0.81127434  0.96313809  1
  C  C366  1  0.27767126  0.94900273  0.69842003  1
  H  H367  1  0.39919111  0.86974672  0.79390006  1
  C  C368  1  0.25151017  0.88750667  0.88992871  1
  C  C369  1  0.29375045  0.86819791  0.83935269  1
  C  C370  1  0.38893979  0.91768183  0.87852130  1
  C  C371  1  0.27640994  0.92044614  0.93740533  1
  N  N372  1  0.11306876  0.95452194  0.94661518  1
  H  H373  1  0.12844119  0.77407559  0.62189660  1
  H  H374  1  0.38775228  0.95117067  0.63009003  1
  C  C375  1  0.24464899  0.99640709  0.59579282  1
  N  N376  1  0.46564036  0.97784207  0.51977742  1
  C  C377  1  0.47536608  0.77343383  0.87198375  1
  C  C378  1  0.47858862  0.95762876  0.69709053  1
  H  H379  1  0.22080714  0.99640137  0.54794153  1
  C  C380  1  0.49064708  0.97790596  0.58507311  1
  C  C381  1  0.28453606  0.99479878  0.72987667  1
  H  H382  1  0.29484192  0.99409937  0.78465525  1
  Cu  Cu383  1  0.33532869  0.83183406  0.99724052  1
  Cu  Cu384  1  0.89559431  0.18107216  0.13865778  1
  O  O385  1  0.67698112  0.04110263  0.48744103  1
  C  C386  1  0.59063253  0.06223952  0.33403886  1
  H  H387  1  0.88438227  0.18714485  0.49201231  1
  C  C388  1  0.61750031  0.10855293  0.29661511  1
  C  C389  1  0.58276248  0.15603690  0.30041100  1
  C  C390  1  0.77257692  0.13615347  0.19125722  1
  C  C391  1  0.70514554  0.14640147  0.22720567  1
  C  C392  1  0.59923461  0.10826277  0.08570013  1
  H  H393  1  0.70353252  0.22799974  0.20568466  1
  H  H394  1  0.95629923  0.11730623  0.34289699  1
  O  O395  1  0.86410168  0.16022994  0.05332635  1
  O  O396  1  0.79894596  0.09296967  0.19231214  1
  C  C397  1  0.92004751  0.14876363  0.35737854  1
  H  H398  1  0.60446434  0.03027961  0.04693302  1
  C  C399  1  0.62361978  0.15930732  0.07359754  1
  O  O400  1  0.54121679  0.06666926  0.36853545  1
  Cu  Cu401  1  0.70107504  0.02263496  0.40033308  1
  C  C402  1  0.82416352  0.22677392  0.39269701  1
  C  C403  1  0.67847717  0.10228960  0.25865674  1
  O  O404  1  0.80079611  0.17310690  0.16079273  1
  H  H405  1  0.71188522  0.06692632  0.25945027  1
  O  O406  1  0.87260659  0.04986036  0.35626584  1
  C  C407  1  0.84933805  0.13989699  0.37401611  1
  C  C408  1  0.52373946  0.05090288  0.13414594  1
  N  N409  1  0.55662798  0.09517056  0.13747682  1
  O  O410  1  0.76594519  0.07588170  0.38177419  1
  O  O411  1  0.86815849  0.07669051  0.07373735  1
  O  O412  1  0.73170316  0.00781394  0.17056319  1
  C  C413  1  0.86380959  0.11469136  0.03378941  1
  C  C414  1  0.82973529  0.08385892  0.37325370  1
  H  H415  1  0.74246397  0.16519346  0.39638718  1
  C  C416  1  0.79914290  0.17612318  0.38786503  1
  O  O417  1  0.63298260  0.02335849  0.33238327  1
  C  C418  1  0.61991047  0.07038893  0.03855774  1
  N  N419  1  0.59279248  0.24809080  0.28797003  1
  H  H420  1  0.61761722  0.18919298  0.11047936  1
  C  C421  1  0.61129745  0.19987126  0.26742819  1
  C  C422  1  0.67671180  0.19463417  0.23038058  1
  Cu  Cu423  1  0.79685220  0.04576227  0.12145946  1
  C  C424  1  0.94517509  0.19957736  0.36188093  1
  H  H425  1  0.53364389  0.15607844  0.32774520  1
  C  C426  1  0.66411470  0.16959354  0.01875624  1
  C  C427  1  0.89687241  0.23836996  0.38010024  1
  C  C428  1  0.51559626  0.14807427  0.47687894  1
  O  O429  1  0.99053936  0.18322119  0.12225829  1
  H  H430  1  0.53467446  0.02579745  0.09060927  1
  O  O431  1  0.93736716  0.00573981  0.25709730  1
  C  C432  1  0.68487752  0.22453593  0.00323060  1
  H  H433  1  0.56249329  0.12265343  0.47764285  1
  C  C434  1  0.87187321  0.10597544  0.96569426  1
  H  H435  1  0.82102912  0.02461012  0.62489061  1
  C  C436  1  0.89456904  0.04794248  0.87674232  1
  C  C437  1  0.54667745  0.18105017  0.58727875  1
  C  C438  1  0.87093788  0.18059699  0.80918146  1
  O  O439  1  0.86169425  0.22561442  0.83220615  1
  C  C440  1  0.88076882  0.19776888  0.54217422  1
  H  H441  1  0.70858330  0.14155214  0.92874783  1
  C  C442  1  0.68359557  0.13169266  0.97349418  1
  C  C443  1  0.88135776  0.13658850  0.85168771  1
  C  C444  1  0.87647442  0.14574881  0.91904988  1
  C  C445  1  0.71742814  0.20801138  0.70722342  1
  H  H446  1  0.90013085  0.08169931  0.77677369  1
  C  C447  1  0.56655036  0.22287966  0.62989402  1
  H  H448  1  0.60560291  0.04224019  0.73549436  1
  C  C449  1  0.79074086  0.21069226  0.60993817  1
  N  N450  1  0.60236858  0.10003334  0.62938865  1
  N  N451  1  0.93695326  0.20492115  0.70979854  1
  C  C452  1  0.67757431  0.17906940  0.75689046  1
  H  H453  1  0.73444353  0.14229527  0.64725199  1
  O  O454  1  0.75123070  0.07965514  0.55022042  1
  N  N455  1  0.63624590  0.03293076  0.77343017  1
  H  H456  1  0.59694428  0.21549064  0.67752279  1
  Cu  Cu457  1  0.70090785  0.08984938  0.81406794  1
  O  O458  1  0.64099700  0.20253466  0.79817972  1
  C  C459  1  0.66910540  0.04244473  0.93217156  1
  N  N460  1  0.92817874  0.19981899  0.64941316  1
  C  C461  1  0.89183209  0.08833269  0.82970958  1
  N  N462  1  0.56963353  0.13227655  0.59823454  1
  O  O463  1  0.71507215  0.05651515  0.88893061  1
  C  C464  1  0.65691811  0.08330417  0.98387253  1
  Cu  Cu465  1  0.65545573  0.24540193  0.87334137  1
  C  C466  1  0.93960140  0.20392545  0.58819251  1
  O  O467  1  0.87024862  0.16985813  0.75040229  1
  N  N468  1  0.81528591  0.18875407  0.55222487  1
  C  C469  1  0.87781817  0.05605077  0.94336507  1
  O  O470  1  0.67727737  0.13050764  0.74981936  1
  C  C471  1  0.74685945  0.18377607  0.65338357  1
  H  H472  1  0.87175248  0.18377182  0.94149480  1
  H  H473  1  0.88412825  0.02306128  0.97765538  1
  O  O474  1  0.70734555  0.23011525  0.94359503  1
  C  C475  1  0.72109750  0.04201538  0.53473077  1
  H  H476  1  0.50169483  0.01861915  0.81483221  1
  N  N477  1  0.91507699  0.00029341  0.85976418  1
  H  H478  1  0.59268828  0.00533799  0.55105580  1
  C  C479  1  0.50132550  0.18391876  0.52953418  1
  N  N480  1  0.63931005  0.34396205  0.30817146  1
  N  N481  1  0.66551150  0.35083607  0.36208527  1
  H  H482  1  0.97523338  0.30552849  0.26209452  1
  H  H483  1  0.56229306  0.38663745  0.03832533  1
  O  O484  1  0.55687319  0.35611745  0.44425389  1
  O  O485  1  0.69527768  0.44884117  0.40663720  1
  C  C486  1  0.58697289  0.35761476  0.13297410  1
  C  C487  1  0.61132065  0.33195339  0.25017247  1
  O  O488  1  0.79800589  0.31121511  0.40465434  1
  O  O489  1  0.83468646  0.32839230  0.27780768  1
  C  C490  1  0.63359260  0.45938600  0.16745861  1
  C  C491  1  0.61096615  0.36958732  0.19786543  1
  O  O492  1  0.79793942  0.41436050  0.38027940  1
  H  H493  1  0.91057008  0.27814898  0.37573911  1
  C  C494  1  0.85879210  0.45027516  0.49043985  1
  O  O495  1  0.70741218  0.25512319  0.41738587  1
  C  C496  1  0.90162567  0.31095456  0.18056352  1
  H  H497  1  0.56730440  0.31825049  0.12091554  1
  H  H498  1  0.65703652  0.42681160  0.26300255  1
  N  N499  1  0.61418375  0.48515236  0.05628517  1
  C  C500  1  0.95052963  0.30264061  0.07387438  1
  C  C501  1  0.77301977  0.26671393  0.40724882  1
  C  C502  1  0.59518105  0.27828933  0.23890521  1
  H  H503  1  0.70627890  0.40464662  0.03428034  1
  C  C504  1  0.63650882  0.41963154  0.21177043  1
  Cu  Cu505  1  0.62341104  0.40368057  0.42599400  1
  Cu  Cu506  1  0.62403473  0.29873212  0.42814911  1
  C  C507  1  0.58510552  0.39601281  0.08748143  1
  H  H508  1  0.83563750  0.31282365  0.09510086  1
  C  C509  1  0.79216329  0.46598967  0.47493057  1
  O  O510  1  0.77642740  0.31723181  0.18693915  1
  C  C511  1  0.60782309  0.44645765  0.10385609  1
  C  C512  1  0.96725026  0.30376332  0.20862955  1
  C  C513  1  0.89041043  0.31044501  0.11363495  1
  C  C514  1  0.75904123  0.44134194  0.41626315  1
  C  C515  1  0.83089747  0.32002421  0.21729647  1
  Cu  Cu516  1  0.77317905  0.35631340  0.33822273  1
  H  H517  1  0.98015415  0.27545783  0.34193660  1
  H  H518  1  0.88633819  0.42132472  0.46350666  1
  H  H519  1  0.59879579  0.25814353  0.19336670  1
  H  H520  1  0.64302018  0.49879015  0.18100464  1
  C  C521  1  0.92687129  0.30524360  0.00361654  1
  O  O522  1  0.66542966  0.25877853  0.03559498  1
  C  C523  1  0.50251372  0.49636501  0.24768110  1
  H  H524  1  0.54972697  0.49807684  0.21441391  1
  C  C525  1  0.62526441  0.44441862  0.64182322  1
  C  C526  1  0.61010392  0.39436907  0.66974488  1
  N  N527  1  0.99650772  0.26351360  0.82445128  1
  N  N528  1  0.94983663  0.34942236  0.75701655  1
  N  N529  1  0.97245205  0.37081452  0.70852335  1
  C  C530  1  0.58367194  0.33820599  0.76242308  1
  H  H531  1  0.82889727  0.28688692  0.58504749  1
  Cu  Cu532  1  0.74403135  0.40568177  0.57583146  1
  H  H533  1  0.92615881  0.45833974  0.74768346  1
  C  C534  1  0.85903848  0.48070411  0.81610844  1
  C  C535  1  0.94432223  0.42583651  0.61968532  1
  C  C536  1  0.76452420  0.28672814  0.67181251  1
  O  O537  1  0.57856925  0.28900982  0.86053995  1
  O  O538  1  0.60944457  0.36922263  0.86813790  1
  H  H539  1  0.88881604  0.42525337  0.62761875  1
  C  C540  1  0.59933264  0.38670018  0.73526263  1
  H  H541  1  0.61248457  0.35002606  0.58119913  1
  H  H542  1  0.61085317  0.41488674  0.77072496  1
  O  O543  1  0.66016498  0.44172572  0.58910290  1
  C  C544  1  0.57186078  0.30428076  0.65763365  1
  C  C545  1  0.77657104  0.34299722  0.67423641  1
  O  O546  1  0.79923345  0.36680951  0.62272222  1
  C  C547  1  0.59131572  0.33357042  0.83502571  1
  C  C548  1  0.60030032  0.35083002  0.63279682  1
  O  O549  1  0.75933146  0.36634571  0.72248201  1
  H  H550  1  0.79777500  0.40877249  0.94413101  1
  Cu  Cu551  1  0.95073780  0.27647447  0.74370106  1
  O  O552  1  0.87160221  0.32108505  0.98384407  1
  C  C553  1  0.56314449  0.29604501  0.72578607  1
  C  C554  1  0.74916111  0.47364789  0.89760190  1
  N  N555  1  0.95376916  0.45392267  0.56940780  1
  C  C556  1  0.89048943  0.47304530  0.54823512  1
  H  H557  1  0.70087428  0.28102808  0.76242024  1
  N  N558  1  0.55305733  0.26853908  0.61098527  1
  C  C559  1  0.70472706  0.43374391  0.99714928  1
  C  C560  1  0.75294825  0.43477909  0.94643215  1
  C  C561  1  0.98242478  0.49647337  0.81595529  1
  O  O562  1  0.61274038  0.48734112  0.66783861  1
  O  O563  1  0.97038329  0.28438617  0.96166083  1
  N  N564  1  0.91851376  0.48891061  0.77751418  1
  H  H565  1  0.54167604  0.26115060  0.74890290  1
  H  H566  1  0.53933823  0.44606782  0.51194254  1
  C  C567  1  0.80772896  0.47551599  0.85049255  1
  C  C568  1  0.65319176  0.47616926  0.99922923  1
  C  C569  1  0.79643642  0.26435583  0.61885501  1
  Cu  Cu570  1  0.91819401  0.25329511  0.89429927  1
  C  C571  1  0.72926530  0.26045419  0.71973726  1
  C  C572  1  0.99617744  0.39778478  0.65593963  1
  N  N573  1  0.68279860  0.37249089  0.50382429  1
  N  N574  1  0.67399196  0.32779455  0.50734796  1
  C  C575  1  0.60570477  0.53491040  0.08004611  1
  N  N576  1  0.74765823  0.64562044  0.22828578  1
  C  C577  1  0.70635580  0.59161832  0.43120767  1
  C  C578  1  0.80949264  0.66316159  0.25781098  1
  C  C579  1  0.93272884  0.64215670  0.26348318  1
  C  C580  1  0.67152836  0.56127336  0.09028009  1
  O  O581  1  0.96130289  0.63894839  0.06612811  1
  C  C582  1  0.60680875  0.60523032  0.17663197  1
  C  C583  1  0.88614521  0.70529591  0.33599462  1
  C  C584  1  0.81812884  0.69761024  0.30945616  1
  H  H585  1  0.76960584  0.71752509  0.32788012  1
  C  C586  1  0.57392086  0.53467224  0.33479380  1
  C  C587  1  0.65799269  0.62896397  0.45131327  1
  C  C588  1  0.68969445  0.66245357  0.25164511  1
  H  H589  1  0.99712889  0.68671288  0.32949744  1
  O  O590  1  0.95183853  0.74829577  0.41881542  1
  C  C591  1  0.61870827  0.64170753  0.23282450  1
  H  H592  1  0.99264676  0.74774871  0.10930976  1
  N  N593  1  0.56037294  0.65644775  0.26153641  1
  C  C594  1  0.86838238  0.63657994  0.23063067  1
  C  C595  1  0.66998115  0.59888040  0.14034439  1
  N  N596  1  0.59702392  0.71291372  0.04118597  1
  H  H597  1  0.71853634  0.61561964  0.15892628  1
  C  C598  1  0.98877627  0.60887832  0.23407144  1
  C  C599  1  0.94326079  0.67620873  0.31352668  1
  H  H600  1  0.86450364  0.60927422  0.18926947  1
  C  C601  1  0.77652815  0.59738301  0.45398025  1
  N  N602  1  0.69727040  0.55515218  0.37978848  1
  H  H603  1  0.73587593  0.52897926  0.36224462  1
  C  C604  1  0.79187172  0.63770849  0.49482328  1
  H  H605  1  0.69960436  0.69006504  0.29477533  1
  C  C606  1  0.53912549  0.58422598  0.15892754  1
  C  C607  1  0.89370902  0.74533716  0.38681337  1
  H  H608  1  0.70531450  0.51523150  0.49016892  1
  H  H609  1  0.82274794  0.57389390  0.43688033  1
  O  O610  1  0.55271750  0.69407387  0.48152028  1
  H  H611  1  0.60581570  0.62971346  0.42944788  1
  C  C612  1  0.50343522  0.51965504  0.31300989  1
  C  C613  1  0.63315095  0.54499228  0.35562755  1
  O  O614  1  0.96457079  0.57701170  0.18921679  1
  C  C615  1  0.99090312  0.65668040  0.01295703  1
  H  H616  1  0.84446534  0.64888808  0.00309748  1
  C  C617  1  0.67332074  0.66807140  0.49435271  1
  C  C618  1  0.53894746  0.54816769  0.10987889  1
  H  H619  1  0.72207058  0.55218209  0.06545631  1
  Cu  Cu620  1  0.95874410  0.72628787  0.49944153  1
  N  N621  1  0.57220306  0.70324018  0.32001425  1
  Cu  Cu622  1  0.98040835  0.57537850  0.09809239  1
  O  O623  1  0.98597750  0.54656530  0.01694115  1
  C  C624  1  0.50047148  0.74280038  0.09843571  1
  H  H625  1  0.63672999  0.72053300  0.01015575  1
  N  N626  1  0.51335642  0.71286956  0.34086253  1
  C  C627  1  0.85606670  0.51294772  0.58315474  1
  H  H628  1  0.70501862  0.54744360  0.86081818  1
  N  N629  1  0.96757801  0.69804779  0.78111831  1
  O  O630  1  0.77553128  0.58125488  0.65406475  1
  C  C631  1  0.51170155  0.67269472  0.74966166  1
  C  C632  1  0.86906698  0.64635136  0.51345468  1
  H  H633  1  0.83192267  0.67495408  0.79349336  1
  C  C634  1  0.74157770  0.67286050  0.51933527  1
  C  C635  1  0.74704635  0.56487070  0.60516579  1
  C  C636  1  0.94685473  0.66492328  0.95434707  1
  C  C637  1  0.78755770  0.52615640  0.56540500  1
  C  C638  1  0.93910105  0.68392400  0.84055498  1
  C  C639  1  0.98207571  0.67672191  0.89564403  1
  C  C640  1  0.75299373  0.64804966  0.89797366  1
  O  O641  1  0.72004698  0.65724747  0.84864263  1
  O  O642  1  0.68200997  0.57736751  0.59078541  1
  H  H643  1  0.87994563  0.53144921  0.62412253  1
  C  C644  1  0.83608865  0.65889019  0.89791193  1
  C  C645  1  0.87346568  0.65600749  0.95598324  1
  O  O646  1  0.52935122  0.66327418  0.68981598  1
  C  C647  1  0.86552453  0.67256582  0.84023189  1
  Cu  Cu648  1  0.60171658  0.54927823  0.62263632  1
  H  H649  1  0.67612973  0.74118978  0.83150536  1
  C  C650  1  0.70023106  0.51475540  0.89763467  1
  O  O651  1  0.55852823  0.52649405  0.55175776  1
  H  H652  1  0.75993064  0.70199499  0.55620968  1
  H  H653  1  0.61101249  0.54584973  0.95597746  1
  C  C654  1  0.51032954  0.72616707  0.77885703  1
  O  O655  1  0.72669827  0.63175131  0.94778630  1
  C  C656  1  0.61323225  0.70080517  0.51653128  1
  O  O657  1  0.61311679  0.72944279  0.56028066  1
  C  C658  1  0.65224950  0.51503332  0.94935926  1
  H  H659  1  0.92239159  0.51415315  0.90723940  1
  C  C660  1  0.75578565  0.50383423  0.51114010  1
  H  H661  1  0.97893671  0.64763970  0.67761270  1
  C  C662  1  0.97613283  0.50810179  0.88365244  1
  O  O663  1  0.88581932  0.68981677  0.53675020  1
  H  H664  1  0.88080799  0.74225759  0.63377655  1
  H  H665  1  0.89598661  0.74878256  0.75777417  1
  O  O666  1  0.91145525  0.61221857  0.50546264  1
  C  C667  1  0.71061161  0.91181948  0.32324446  1
  C  C668  1  0.98952351  0.76605297  0.21622799  1
  O  O669  1  0.90481896  0.86590251  0.35107248  1
  C  C670  1  0.62336809  0.86282744  0.26363767  1
  N  N671  1  0.75604575  0.95535911  0.04475444  1
  N  N672  1  0.58908847  0.81931623  0.24244423  1
  Cu  Cu673  1  0.83977289  0.84804254  0.42125227  1
  C  C674  1  0.71780816  0.94560964  0.26939865  1
  H  H675  1  0.66135311  0.84250827  0.36348300  1
  C  C676  1  0.58478177  0.80549381  0.02365137  1
  Cu  Cu677  1  0.86885135  0.98137297  0.31462491  1
  H  H678  1  0.86040117  0.87586449  0.16320167  1
  C  C679  1  0.96950603  0.77108252  0.14946644  1
  H  H680  1  0.97130012  0.79359443  0.31426332  1
  C  C681  1  0.96111386  0.80061118  0.26207051  1
  C  C682  1  0.56392558  0.80100536  0.29418281  1
  C  C683  1  0.69625966  0.96726847  0.15640184  1
  C  C684  1  0.67918585  0.93458499  0.21447578  1
  C  C685  1  0.54017669  0.85247072  0.47335695  1
  C  C686  1  0.62956217  0.89689859  0.20940581  1
  C  C687  1  0.66660039  0.87014366  0.32149701  1
  H  H688  1  0.59883780  0.89006539  0.16452902  1
  N  N689  1  0.55746128  0.85198398  0.04128677  1
  O  O690  1  0.76009765  0.89229139  0.42795559  1
  C  C691  1  0.89589797  0.81499481  0.06130871  1
  C  C692  1  0.89579216  0.84447201  0.17626851  1
  O  O693  1  0.85756433  0.91514858  0.27566070  1
  C  C694  1  0.52855161  0.85192779  0.40411632  1
  C  C695  1  0.89180577  0.87612943  0.29311126  1
  H  H696  1  0.54619486  0.76763759  0.26069588  1
  O  O697  1  0.79516922  0.96253525  0.38105099  1
  C  C698  1  0.75659440  0.92376019  0.38149811  1
  C  C699  1  0.91402314  0.83949092  0.24194836  1
  O  O700  1  0.85782621  0.84972063  0.04327978  1
  N  N701  1  0.54775206  0.89822837  0.04271181  1
  C  C702  1  0.92224229  0.80790779  0.13336315  1
  C  C703  1  0.53850388  0.80397704  0.36340011  1
  H  H704  1  0.50916499  0.82219171  0.13501055  1
  O  O705  1  0.84281070  0.77435330  0.39646590  1
  O  O706  1  0.68121726  0.95399023  0.10160291  1
  H  H707  1  0.75823378  0.97636029  0.26846701  1
  H  H708  1  0.56020677  0.81868899  0.49681501  1
  N  N709  1  0.79631614  0.99002202  0.05102483  1
  O  O710  1  0.91891811  0.78104352  0.02468666  1
  N  N711  1  0.51901798  0.76078985  0.39226301  1
  H  H712  1  0.68624722  0.79966988  0.49705311  1
  C  C713  1  0.56526689  0.75601406  0.05537090  1
  H  H714  1  0.69397970  0.87426515  0.01162377  1
  N  N715  1  0.69539326  0.86061260  0.53282038  1
  C  C716  1  0.72385622  0.81683478  0.53050334  1
  C  C717  1  0.84525606  0.76020094  0.73388849  1
  C  C718  1  0.55501684  0.96321326  0.70508264  1
  H  H719  1  0.55393502  0.77138239  0.70073621  1
  C  C720  1  0.92219609  0.89564759  0.81238970  1
  H  H721  1  0.84029227  0.86001396  0.75167442  1
  C  C722  1  0.99623449  0.94113241  0.89463713  1
  C  C723  1  0.56319487  0.98773753  0.59128317  1
  O  O724  1  0.92776334  0.90056637  0.67333937  1
  O  O725  1  0.90899596  0.98096063  0.69393647  1
  C  C726  1  0.59686632  0.97665116  0.65020106  1
  N  N727  1  0.84985725  0.79158601  0.54385508  1
  C  C728  1  0.79925258  0.98822625  0.60770690  1
  C  C729  1  0.63849463  0.80715139  0.97220505  1
  H  H730  1  0.89932167  0.78135848  0.93106256  1
  C  C731  1  0.62720949  0.77209908  0.91746085  1
  H  H732  1  0.53836524  0.94952365  0.94379667  1
  C  C733  1  0.74718707  0.83985798  0.92531345  1
  C  C734  1  0.90783049  0.81201485  0.89670636  1
  C  C735  1  0.74516678  0.80026056  0.87577070  1
  C  C736  1  0.95513657  0.84999085  0.91623293  1
  C  C737  1  0.78508246  0.77918049  0.76735795  1
  C  C738  1  0.87600321  0.85813335  0.79399488  1
  H  H739  1  0.82196351  0.86038905  0.60871865  1
  C  C740  1  0.53366012  0.77107659  0.74979676  1
  N  N741  1  0.79804337  0.79209027  0.83232582  1
  N  N742  1  0.63072716  0.98703275  0.79545058  1
  H  H743  1  0.79256743  0.86528787  0.92302697  1
  C  C744  1  0.71390362  0.78888061  0.73916208  1
  C  C745  1  0.68032544  0.76940447  0.87197248  1
  C  C746  1  0.74279974  0.98892833  0.56245802  1
  C  C747  1  0.86688992  0.81611728  0.83846088  1
  H  H748  1  0.66795112  0.80068572  0.76637168  1
  N  N749  1  0.54160711  0.86694085  0.75781076  1
  C  C750  1  0.69718813  0.84305449  0.97414530  1
  C  C751  1  0.70882431  0.94815799  0.53819344  1
  C  C752  1  0.82612541  0.94034263  0.62296550  1
  C  C753  1  0.70929335  0.78800964  0.67199046  1
  H  H754  1  0.65495507  0.97754453  0.65503455  1
  H  H755  1  0.59014077  0.89066404  0.84460518  1
  C  C756  1  0.96036977  0.89303748  0.87352793  1
  C  C757  1  0.73507048  0.89960636  0.55915135  1
  C  C758  1  0.78196815  0.79058659  0.56768280  1
  H  H759  1  0.53261252  0.88875191  0.56075111  1
  C  C760  1  0.58930741  0.94943269  0.76734264  1
  C  C761  1  0.57663475  0.90025834  0.79430735  1
  C  C762  1  0.79856147  0.89715120  0.59733829  1
  H  H763  1  0.98596456  0.85126626  0.96158139  1
  C  C764  1  0.77374694  0.77764502  0.63662326  1
  C  C765  1  0.89601083  0.94002333  0.66491697  1
  C  C766  1  0.52481663  0.81797661  0.78272869  1
  H  H767  1  0.65857512  0.79965754  0.64916868  1
  H  H768  1  0.93120203  0.92879601  0.77962968  1
  C  C769  1  0.52156228  0.89521875  0.50788061  1
  N  N770  1  0.90839251  0.79260758  0.52089703  1
  O  O771  1  0.65050924  0.99999506  0.94116351  1
  H  H772  1  0.57720084  0.75010228  0.91046999  1
  C  C773  1  0.83853649  0.75726431  0.66617065  1
  C  C774  1  0.97863224  0.99411885  0.88419535  1
  H  H775  1  0.66584676  0.95159467  0.50063125  1
