# generated using pymatgen
data_Zn12H148C243O56
_symmetry_space_group_name_H-M   'P 1'
_cell_length_a   29.78079803
_cell_length_b   26.86666914
_cell_length_c   16.68162029
_cell_angle_alpha   90.00000000
_cell_angle_beta   90.00000000
_cell_angle_gamma   90.00000000
_symmetry_Int_Tables_number   1
_chemical_formula_structural   Zn12H148C243O56
_chemical_formula_sum   'Zn24 H296 C486 O112'
_cell_volume   13347.14534521
_cell_formula_units_Z   2
loop_
 _symmetry_equiv_pos_site_id
 _symmetry_equiv_pos_as_xyz
  1  'x, y, z'
loop_
 _atom_site_type_symbol
 _atom_site_label
 _atom_site_symmetry_multiplicity
 _atom_site_fract_x
 _atom_site_fract_y
 _atom_site_fract_z
 _atom_site_occupancy
  C  C0  1  0.13564450  0.18664547  0.13701896  1
  H  H1  1  0.14446322  0.14724004  0.12491395  1
  H  H2  1  0.08248029  0.16725707  0.22651134  1
  C  C3  1  0.10160579  0.19600142  0.19299118  1
  C  C4  1  0.19470346  0.22323760  0.03309680  1
  C  C5  1  0.15687071  0.22691595  0.09560884  1
  H  H6  1  0.03078944  0.22464044  0.14406650  1
  C  C7  1  0.24174898  0.21075241  0.05762813  1
  H  H8  1  0.24464014  0.20474285  0.12329148  1
  O  O9  1  0.03149702  0.21980736  0.30019217  1
  H  H10  1  0.01406827  0.24047959  0.33945967  1
  C  C11  1  0.00095698  0.21806207  0.10352100  1
  C  C12  1  0.09235164  0.24700214  0.20655131  1
  C  C13  1  0.00564440  0.22045898  0.02083374  1
  H  H14  1  0.10160519  0.48994789  0.25260809  1
  H  H15  1  0.12208053  0.47902477  0.10593286  1
  C  C16  1  0.11561005  0.28793070  0.17212461  1
  C  C17  1  0.18443649  0.47253135  0.42640838  1
  C  C18  1  0.05359924  0.26131699  0.26030788  1
  Zn  Zn19  1  0.23813946  0.47348537  0.18585612  1
  H  H20  1  0.14082406  0.42985993  0.34622195  1
  O  O21  1  0.03975867  0.30236845  0.27206881  1
  C  C22  1  0.20680319  0.49697072  0.35496737  1
  H  H23  1  0.16405757  0.31022022  0.08268386  1
  O  O24  1  0.19686608  0.48266592  0.28567134  1
  H  H25  1  0.12825476  0.39462477  0.03646162  1
  C  C26  1  0.14863243  0.27840206  0.11425222  1
  H  H27  1  0.10694246  0.32528184  0.18991283  1
  C  C28  1  0.22106711  0.39057826  0.06384698  1
  O  O29  1  0.20144256  0.41237629  0.11833470  1
  C  C30  1  0.14802600  0.43912649  0.41121900  1
  H  H31  1  0.09927983  0.39023527  0.47057444  1
  C  C32  1  0.12755730  0.41750380  0.47700218  1
  C  C33  1  0.12701295  0.10194807  0.70600860  1
  C  C34  1  0.15825007  0.06120010  0.74050856  1
  C  C35  1  0.13465748  0.15248761  0.72059154  1
  C  C36  1  0.10301942  0.18541892  0.68949360  1
  O  O37  1  0.18988084  0.07052331  0.78540893  1
  C  C38  1  0.09111308  0.08220839  0.66116098  1
  C  C39  1  0.06548278  0.16849921  0.64630220  1
  H  H40  1  0.08959413  0.04021704  0.65256627  1
  C  C41  1  0.05951620  0.11651467  0.63316479  1
  H  H42  1  0.16093319  0.16513742  0.76242086  1
  C  C43  1  0.03737170  0.21145425  0.61489014  1
  H  H44  1  0.20578134  0.22479455  0.90406497  1
  C  C45  1  0.05481950  0.23519667  0.87039084  1
  C  C46  1  0.10165112  0.23961943  0.87180102  1
  C  C47  1  0.17972508  0.22519144  0.95175109  1
  H  H48  1  0.02038638  0.21999128  0.75764138  1
  C  C49  1  0.01752375  0.22438281  0.82263427  1
  C  C50  1  0.13347291  0.23605717  0.93317758  1
  O  O51  1  0.15302523  0.01621359  0.71940626  1
  H  H52  1  0.03085408  0.10471692  0.59815022  1
  C  C53  1  0.00626364  0.20018092  0.55097299  1
  Zn  Zn54  1  0.06840917  0.24814232  0.98661153  1
  H  H55  1  0.10963783  0.22465992  0.69311500  1
  H  H56  1  0.00583045  0.16510667  0.52150951  1
  C  C57  1  0.08162241  0.38496109  0.62519962  1
  H  H58  1  0.05966478  0.26140543  0.70541649  1
  C  C59  1  0.19384312  0.37829887  0.98995174  1
  C  C60  1  0.00940747  0.34949868  0.67832640  1
  C  C61  1  0.14761853  0.38306229  0.98350876  1
  H  H62  1  0.08710413  0.43013269  0.78174987  1
  C  C63  1  0.08423282  0.47103360  0.79473479  1
  C  C64  1  0.15309124  0.39283470  0.70071888  1
  H  H65  1  0.02814386  0.38795154  0.85069625  1
  H  H66  1  0.06016652  0.39546214  0.57442125  1
  C  C67  1  0.18195902  0.46019549  0.56904693  1
  C  C68  1  0.12563447  0.37170567  0.91186406  1
  C  C69  1  0.19889237  0.34504263  0.85446032  1
  C  C70  1  0.14529364  0.42664107  0.55531789  1
  C  C71  1  0.06059960  0.36045156  0.69021675  1
  C  C72  1  0.08668380  0.34644488  0.75721843  1
  C  C73  1  0.00721076  0.29877563  0.63632369  1
  C  C74  1  0.20061612  0.48554782  0.50378975  1
  H  H75  1  0.09093563  0.37924546  0.90295235  1
  H  H76  1  0.18777818  0.40691531  0.70514514  1
  H  H77  1  0.07251668  0.32332420  0.80156705  1
  C  C78  1  0.13156813  0.36591231  0.76342509  1
  Zn  Zn79  1  0.21461580  0.46434505  0.83325419  1
  C  C80  1  0.03726869  0.25782238  0.65405598  1
  C  C81  1  0.21977029  0.35686808  0.92740766  1
  H  H82  1  0.02381512  0.44874644  0.67980491  1
  C  C83  1  0.15395776  0.35793423  0.84609173  1
  C  C84  1  0.12774979  0.40059788  0.62990377  1
  H  H85  1  0.19352083  0.46903184  0.62830372  1
  H  H86  1  0.21961453  0.33324685  0.80317063  1
  H  H87  1  0.13095947  0.47299343  0.99133266  1
  C  C88  1  0.10033513  0.56886498  0.24412031  1
  C  C89  1  0.08982081  0.56892279  0.33374029  1
  C  C90  1  0.10523255  0.61468723  0.20274985  1
  O  O91  1  0.08969120  0.52977921  0.37159743  1
  O  O92  1  0.08406100  0.61270894  0.36460663  1
  H  H93  1  0.09683080  0.65131027  0.23202627  1
  C  C94  1  0.11666823  0.61098780  0.12160200  1
  H  H95  1  0.12386154  0.64362913  0.08091225  1
  C  C96  1  0.12449807  0.56180601  0.08861659  1
  C  C97  1  0.10513757  0.52251254  0.20974192  1
  C  C98  1  0.11789097  0.51671800  0.12990418  1
  Zn  Zn99  1  0.10116708  0.68822571  0.37068128  1
  H  H100  1  0.16882645  0.69071888  0.14663609  1
  H  H101  1  0.18275539  0.58201825  0.18024299  1
  C  C102  1  0.22053023  0.58266357  0.15832127  1
  C  C103  1  0.02058635  0.69580422  0.21894003  1
  O  O104  1  0.15894526  0.71039917  0.43215423  1
  C  C105  1  0.00320532  0.67920485  0.36653993  1
  H  H106  1  0.01898162  0.53191921  0.47842640  1
  H  H107  1  0.06045213  0.61268411  0.49740760  1
  C  C108  1  0.00884909  0.68920009  0.13734820  1
  O  O109  1  0.22270081  0.54157380  0.12473457  1
  H  H110  1  0.02479649  0.71032081  0.08951843  1
  C  C111  1  0.19219464  0.72990737  0.04323094  1
  C  C112  1  0.17044626  0.72641359  0.11504625  1
  O  O113  1  0.24102516  0.52169335  0.36676481  1
  C  C114  1  0.14621292  0.55467705  0.00957987  1
  C  C115  1  0.24382737  0.62977183  0.18144205  1
  O  O116  1  0.24216633  0.67248074  0.20256737  1
  O  O117  1  0.11781498  0.72028227  0.25312227  1
  H  H118  1  0.24151780  0.74598588  0.26257473  1
  C  C119  1  0.15182900  0.73690208  0.49772183  1
  O  O120  1  0.03277274  0.70830289  0.39307733  1
  H  H121  1  0.04620827  0.72385452  0.23176522  1
  H  H122  1  0.20677464  0.69716770  0.01672298  1
  H  H123  1  0.24920810  0.79641249  0.23970766  1
  Zn  Zn124  1  0.17838044  0.80072504  0.37486078  1
  O  O125  1  0.24090727  0.77720385  0.28625480  1
  H  H126  1  0.09822280  0.75354809  0.01168239  1
  C  C127  1  0.17334836  0.88647124  0.49531412  1
  H  H128  1  0.19342597  0.86197639  0.02742714  1
  O  O129  1  0.16523268  0.78176734  0.49403601  1
  C  C130  1  0.18621798  0.82309582  0.05173659  1
  O  O131  1  0.20141896  0.87142219  0.41713079  1
  C  C132  1  0.16249905  0.81754235  0.12258938  1
  H  H133  1  0.18510923  0.89858065  0.38804468  1
  O  O134  1  0.12867608  0.79676321  0.28876329  1
  O  O135  1  0.13852226  0.90863378  0.48750326  1
  C  C136  1  0.13011975  0.76398877  0.23591480  1
  C  C137  1  0.15347751  0.77045855  0.15513228  1
  H  H138  1  0.15222416  0.84974618  0.15756611  1
  C  C139  1  0.20214606  0.77974642  0.01214845  1
  C  C140  1  0.19613787  0.59179097  0.90594345  1
  H  H141  1  0.20462171  0.67096037  0.89796536  1
  C  C142  1  0.04196695  0.61322073  0.62519993  1
  H  H143  1  0.13926876  0.58256990  0.76560677  1
  C  C144  1  0.11278930  0.60131808  0.80037714  1
  C  C145  1  0.06692291  0.66110144  0.63523763  1
  O  O146  1  0.06372175  0.68893554  0.68908109  1
  C  C147  1  0.21809499  0.63603915  0.87635610  1
  C  C148  1  0.11350130  0.65007832  0.82319793  1
  C  C149  1  0.08090495  0.56836859  0.83585111  1
  C  C150  1  0.21045724  0.54086492  0.87101804  1
  O  O151  1  0.09661175  0.67420733  0.56124407  1
  C  C152  1  0.04387696  0.59173476  0.54788880  1
  Zn  Zn153  1  0.18466546  0.70370351  0.59396609  1
  H  H154  1  0.13405686  0.67929314  0.79329207  1
  C  C155  1  0.08618001  0.66544602  0.88690462  1
  C  C156  1  0.01798483  0.59502052  0.69069257  1
  C  C157  1  0.11620826  0.71579149  0.56383066  1
  C  C158  1  0.16505445  0.59687775  0.96981186  1
  C  C159  1  0.01674793  0.55001566  0.53610687  1
  C  C160  1  0.05152900  0.58383250  0.90090124  1
  C  C161  1  0.05530854  0.63327568  0.92682399  1
  O  O162  1  0.16597475  0.57268147  0.63059643  1
  C  C163  1  0.08424725  0.51481952  0.81134539  1
  H  H164  1  0.02060334  0.61153832  0.74910384  1
  C  C165  1  0.18320502  0.50407793  0.91443330  1
  C  C166  1  0.13703542  0.54329188  0.63960067  1
  H  H167  1  0.22943493  0.51136279  0.51309638  1
  C  C168  1  0.15171566  0.50489683  0.97344423  1
  C  C169  1  0.09565691  0.71480786  0.91937711  1
  O  O170  1  0.11789734  0.74376702  0.88386002  1
  H  H171  1  0.02788963  0.71457204  0.85691507  1
  H  H172  1  0.12501461  0.52480552  0.69860633  1
  H  H173  1  0.02984031  0.55577613  0.93082491  1
  H  H174  1  0.23278921  0.64575190  0.70402793  1
  H  H175  1  0.10110001  0.74684989  0.60007519  1
  H  H176  1  0.12203159  0.52790528  0.58228860  1
  H  H177  1  0.15434188  0.63419995  0.98886648  1
  C  C178  1  0.00990598  0.74690629  0.82879166  1
  O  O179  1  0.23823264  0.67080981  0.66719069  1
  O  O180  1  0.07473196  0.73322705  0.99486471  1
  H  H181  1  0.03238621  0.64973693  0.97008701  1
  C  C182  1  0.24527006  0.82621221  0.65192026  1
  H  H183  1  0.01350378  0.90473907  0.60774680  1
  O  O184  1  0.10659484  0.85520531  0.85729119  1
  C  C185  1  0.00279889  0.81774385  0.74363433  1
  O  O186  1  0.19968336  0.92096377  0.95784128  1
  H  H187  1  0.07373701  0.86105741  0.84900769  1
  C  C188  1  0.21454277  0.82743673  0.71755996  1
  C  C189  1  0.21095589  0.81308041  0.86983998  1
  C  C190  1  0.22438718  0.77925938  0.93257773  1
  Zn  Zn191  1  0.20352638  0.96850035  0.78356661  1
  H  H192  1  0.14813646  0.85239653  0.76742924  1
  C  C193  1  0.16195635  0.86727383  0.63984746  1
  C  C194  1  0.19173107  0.86634645  0.57280565  1
  C  C195  1  0.03042402  0.77988412  0.77661566  1
  H  H196  1  0.06467544  0.77531636  0.75503838  1
  O  O197  1  0.06345400  0.85312242  0.66459548  1
  C  C198  1  0.21866441  0.92500244  0.89474494  1
  C  C199  1  0.17099377  0.84873626  0.71429413  1
  C  C200  1  0.02417645  0.85137866  0.68189414  1
  H  H201  1  0.18932542  0.84369337  0.87788531  1
  H  H202  1  0.12811006  0.88003662  0.62600153  1
  H  H203  1  0.10900046  0.82426539  0.88319213  1
  C  C204  1  0.23496116  0.84585061  0.58023268  1
  C  C205  1  0.22614547  0.79920979  0.79287818  1
  C  C206  1  0.48011672  0.11419649  0.14056893  1
  O  O207  1  0.46476751  0.20087814  0.11721313  1
  C  C208  1  0.46497008  0.15601451  0.09180460  1
  C  C209  1  0.39614243  0.03656301  0.27964890  1
  C  C210  1  0.37329379  0.04138683  0.20735061  1
  H  H211  1  0.38982950  0.05725721  0.15110962  1
  H  H212  1  0.42932036  0.05249657  0.28966219  1
  C  C213  1  0.48292574  0.06583868  0.10660690  1
  H  H214  1  0.47845670  0.05665703  0.04422765  1
  H  H215  1  0.39624643  0.21364159  0.06240035  1
  C  C216  1  0.28156240  0.23600120  0.02207656  1
  H  H217  1  0.36983314  0.09383658  0.46205832  1
  O  O218  1  0.33435456  0.22974634  0.13185229  1
  C  C219  1  0.32849625  0.23518228  0.06260120  1
  H  H220  1  0.48326963  0.15844388  0.24931827  1
  O  O221  1  0.44991136  0.14549417  0.02239763  1
  O  O222  1  0.32304644  0.04074149  0.05564915  1
  H  H223  1  0.47756874  0.01236969  0.39125940  1
  C  C224  1  0.48613063  0.12120687  0.22329139  1
  C  C225  1  0.39391318  0.02043691  0.43280594  1
  C  C226  1  0.37206295  0.02246441  0.34905548  1
  C  C227  1  0.32811799  0.02800571  0.19842370  1
  C  C228  1  0.30408803  0.01057894  0.26470932  1
  Zn  Zn229  1  0.38472480  0.00135861  0.02286840  1
  C  C230  1  0.30196082  0.03065797  0.11962441  1
  O  O231  1  0.26331121  0.01795836  0.11626939  1
  O  O232  1  0.37978808  0.23219736  0.01875098  1
  C  C233  1  0.32415266  0.01204656  0.34311902  1
  C  C234  1  0.49821112  0.16457559  0.47274534  1
  C  C235  1  0.49993331  0.08300379  0.27469958  1
  C  C236  1  0.46013604  0.20022523  0.45419309  1
  H  H237  1  0.42687036  0.18314448  0.43620078  1
  C  C238  1  0.49141137  0.02717621  0.15950522  1
  C  C239  1  0.39181628  0.06348058  0.48273390  1
  H  H240  1  0.38740417  0.48557122  0.13993976  1
  O  O241  1  0.30829809  0.47512456  0.18906231  1
  H  H242  1  0.45261287  0.38781593  0.37579920  1
  O  O243  1  0.34324678  0.45091401  0.49848803  1
  O  O244  1  0.26269344  0.38359925  0.06035318  1
  C  C245  1  0.47069884  0.25256777  0.43641011  1
  C  C246  1  0.44810700  0.45644926  0.19902655  1
  O  O247  1  0.46202087  0.29233787  0.41298818  1
  Zn  Zn248  1  0.29439200  0.31309170  0.05160636  1
  C  C249  1  0.37557431  0.44049245  0.25099737  1
  C  C250  1  0.40313135  0.46432213  0.19267209  1
  Zn  Zn251  1  0.30137078  0.48581937  0.41893370  1
  C  C252  1  0.43818206  0.40894922  0.32666886  1
  C  C253  1  0.39096144  0.41571687  0.32013978  1
  O  O254  1  0.30219957  0.43955403  0.30677115  1
  H  H255  1  0.47026918  0.47355537  0.15088240  1
  C  C256  1  0.32531168  0.45330001  0.24854013  1
  H  H257  1  0.36631811  0.40105888  0.36542387  1
  C  C258  1  0.46607330  0.42772473  0.26410560  1
  H  H259  1  0.46756899  0.47050694  0.02784373  1
  O  O260  1  0.31275566  0.37638706  0.49456060  1
  C  C261  1  0.38528363  0.14745680  0.59117849  1
  C  C262  1  0.37824928  0.18461152  0.64536750  1
  C  C263  1  0.40427132  0.18468325  0.71710187  1
  C  C264  1  0.41701776  0.10800882  0.60616164  1
  C  C265  1  0.44608613  0.11286094  0.67256000  1
  C  C266  1  0.42199426  0.06589882  0.54856012  1
  C  C267  1  0.43941973  0.15068420  0.72756860  1
  C  C268  1  0.40013711  0.22546946  0.77691452  1
  C  C269  1  0.33369857  0.04942690  0.80791967  1
  C  C270  1  0.33599255  0.09171414  0.86703791  1
  O  O271  1  0.37154638  0.11782729  0.87276748  1
  O  O272  1  0.41974058  0.22515888  0.84372966  1
  Zn  Zn273  1  0.39862833  0.17881976  0.93981567  1
  O  O274  1  0.30109953  0.10032250  0.90446356  1
  H  H275  1  0.36478146  0.15067392  0.53545946  1
  H  H276  1  0.35175397  0.21326691  0.63718343  1
  C  C277  1  0.37369775  0.03871652  0.76436530  1
  H  H278  1  0.40283238  0.06295266  0.77099750  1
  C  C279  1  0.45333826  0.02474682  0.56425416  1
  H  H280  1  0.26932911  0.02323207  0.85323694  1
  H  H281  1  0.46102426  0.15583441  0.77836932  1
  Zn  Zn282  1  0.28018357  0.16878712  0.95434777  1
  H  H283  1  0.47635532  0.02636005  0.61314995  1
  C  C284  1  0.29835909  0.01915176  0.81142696  1
  O  O285  1  0.44348440  0.00827483  0.88534066  1
  H  H286  1  0.47301290  0.08453651  0.68352122  1
  H  H287  1  0.25589670  0.35064573  0.93772076  1
  C  C288  1  0.25361537  0.44623609  0.73395764  1
  C  C289  1  0.28378099  0.25322773  0.93242255  1
  H  H290  1  0.35249323  0.30624436  0.55004728  1
  O  O291  1  0.37061907  0.25790265  0.75939007  1
  H  H292  1  0.41837596  0.26773066  0.62634878  1
  C  C293  1  0.42143255  0.42590732  0.96189582  1
  C  C294  1  0.46398004  0.43780606  0.98390376  1
  H  H295  1  0.39242105  0.44691334  0.97957383  1
  C  C296  1  0.27002157  0.49604256  0.75674605  1
  O  O297  1  0.26601071  0.26704985  0.87525777  1
  C  C298  1  0.49023484  0.32717486  0.67684071  1
  C  C299  1  0.45986511  0.38869445  0.58511869  1
  H  H300  1  0.49135813  0.41215087  0.59430646  1
  C  C301  1  0.44829425  0.35844128  0.86894916  1
  C  C302  1  0.49239525  0.37116269  0.89483462  1
  C  C303  1  0.38330125  0.32638403  0.56267662  1
  C  C304  1  0.38452840  0.37776398  0.54222578  1
  H  H305  1  0.44171368  0.32976466  0.82242231  1
  O  O306  1  0.32869594  0.40109918  0.91784681  1
  O  O307  1  0.25433651  0.40855722  0.69776184  1
  O  O308  1  0.37896085  0.38882943  0.71126299  1
  H  H309  1  0.42249970  0.45166185  0.53556952  1
  H  H310  1  0.49361411  0.43192533  0.79075184  1
  C  C311  1  0.41806236  0.30648529  0.60445496  1
  C  C312  1  0.41252012  0.38628940  0.90643807  1
  H  H313  1  0.38496213  0.42299094  0.72879947  1
  C  C314  1  0.45629431  0.33866552  0.61723167  1
  C  C315  1  0.42338804  0.40972302  0.54766659  1
  C  C316  1  0.36240557  0.38206804  0.89599725  1
  H  H317  1  0.36726630  0.39646000  0.66072366  1
  Zn  Zn318  1  0.36329369  0.32721727  0.81236648  1
  C  C319  1  0.34411548  0.40342955  0.50955011  1
  O  O320  1  0.43874749  0.58014332  0.29031981  1
  C  C321  1  0.42289237  0.57824006  0.12635436  1
  H  H322  1  0.38281448  0.66326944  0.11852672  1
  C  C323  1  0.46789523  0.57765095  0.15630753  1
  H  H324  1  0.47437796  0.65895536  0.05102894  1
  C  C325  1  0.46549945  0.69952189  0.05268505  1
  C  C326  1  0.41499170  0.56679343  0.04684963  1
  C  C327  1  0.36691988  0.66104592  0.05911736  1
  Zn  Zn328  1  0.30253080  0.59414497  0.13860394  1
  H  H329  1  0.39607011  0.58447705  0.16746892  1
  C  C330  1  0.32521261  0.63698743  0.04224335  1
  C  C331  1  0.46985654  0.57781635  0.24581854  1
  H  H332  1  0.38066074  0.56353943  0.02442834  1
  H  H333  1  0.47184863  0.69054004  0.44738201  1
  C  C334  1  0.49439320  0.73772424  0.08284912  1
  C  C335  1  0.42510921  0.71650988  0.01922645  1
  H  H336  1  0.39832547  0.72288643  0.49345766  1
  H  H337  1  0.37960123  0.55524317  0.42558376  1
  O  O338  1  0.35522728  0.55687503  0.39066639  1
  H  H339  1  0.37342771  0.55795849  0.34048488  1
  C  C340  1  0.49946119  0.56950396  0.02596549  1
  H  H341  1  0.28408245  0.55788026  0.45526009  1
  H  H342  1  0.39807242  0.80680896  0.42672314  1
  C  C343  1  0.49882185  0.76327207  0.38794035  1
  H  H344  1  0.36954716  0.78694341  0.36309733  1
  C  C345  1  0.42121113  0.97763167  0.45366337  1
  O  O346  1  0.49497553  0.84657934  0.28568696  1
  O  O347  1  0.38522356  0.77499570  0.41047703  1
  H  H348  1  0.30732171  0.99623385  0.39577511  1
  C  C349  1  0.47760065  0.85092903  0.49013181  1
  O  O350  1  0.27187599  0.81657803  0.14052585  1
  H  H351  1  0.42053164  0.94450630  0.41494269  1
  C  C352  1  0.46704307  0.78026662  0.06580498  1
  H  H353  1  0.27807568  0.81759357  0.08536058  1
  C  C354  1  0.45837256  0.95364056  0.00817628  1
  C  C355  1  0.41937952  0.93102836  0.15099595  1
  C  C356  1  0.45518646  0.89890847  0.18052736  1
  C  C357  1  0.45378911  0.87177454  0.26451550  1
  H  H358  1  0.47060116  0.78012613  0.36087863  1
  H  H359  1  0.39372136  0.94458844  0.19104395  1
  C  C360  1  0.49088515  0.88911465  0.13549636  1
  C  C361  1  0.43019446  0.95096223  0.07720385  1
  O  O362  1  0.42373426  0.87086373  0.30997402  1
  H  H363  1  0.49143891  0.85612424  0.43084992  1
  H  H364  1  0.47652962  0.81906453  0.07493370  1
  H  H365  1  0.49104880  0.98956618  0.13233758  1
  H  H366  1  0.26577284  0.84926418  0.15201112  1
  H  H367  1  0.27013262  0.99680470  0.25409515  1
  C  C368  1  0.42812562  0.77014208  0.02558325  1
  H  H369  1  0.40350087  0.79747853  0.00126973  1
  C  C370  1  0.32073453  0.67098488  0.74600218  1
  C  C371  1  0.36734409  0.68594899  0.91085235  1
  C  C372  1  0.32359959  0.66457669  0.90159047  1
  C  C373  1  0.36582390  0.65437105  0.74686316  1
  H  H374  1  0.38018763  0.64156066  0.80262977  1
  C  C375  1  0.39464544  0.65686502  0.67769178  1
  C  C376  1  0.39397139  0.67992590  0.60405219  1
  Zn  Zn377  1  0.45479898  0.63881439  0.62725159  1
  H  H378  1  0.37559745  0.57520961  0.88757540  1
  H  H379  1  0.30143466  0.58671524  0.75749141  1
  C  C380  1  0.29499490  0.67399695  0.82450860  1
  C  C381  1  0.29270840  0.66724285  0.67161836  1
  H  H382  1  0.38077335  0.70942639  0.86033994  1
  H  H383  1  0.29762343  0.62832160  0.64447079  1
  H  H384  1  0.30615013  0.69601349  0.62782854  1
  C  C385  1  0.41487504  0.69198613  0.53019436  1
  C  C386  1  0.39749097  0.54199746  0.87502142  1
  C  C387  1  0.27173893  0.58547832  0.79666670  1
  C  C388  1  0.47887399  0.53940217  0.85634928  1
  C  C389  1  0.39064669  0.52699495  0.78415379  1
  C  C390  1  0.44426877  0.55273342  0.91056497  1
  C  C391  1  0.26710633  0.72403354  0.83819417  1
  H  H392  1  0.27008515  0.61779768  0.96083715  1
  C  C393  1  0.47242846  0.57662963  0.53143041  1
  C  C394  1  0.30223752  0.64007133  0.96807034  1
  H  H395  1  0.26315038  0.71127826  0.96668262  1
  C  C396  1  0.25812272  0.63066761  0.83129624  1
  O  O397  1  0.43950493  0.55537746  0.50832201  1
  C  C398  1  0.48944650  0.62956719  0.52179289  1
  C  C399  1  0.35024800  0.52017142  0.74982329  1
  C  C400  1  0.45903105  0.67229476  0.50118044  1
  C  C401  1  0.25285235  0.73672873  0.91632309  1
  H  H402  1  0.26250406  0.74959223  0.71218772  1
  C  C403  1  0.42978040  0.51926674  0.73351670  1
  C  C404  1  0.47228782  0.52556154  0.77666203  1
  H  H405  1  0.38246897  0.50923257  0.90282640  1
  H  H406  1  0.43347505  0.53398290  0.62299092  1
  O  O407  1  0.28736342  0.55567599  0.51625627  1
  C  C408  1  0.31199776  0.51439634  0.70859377  1
  H  H409  1  0.31132507  0.52984751  0.52653595  1
  H  H410  1  0.31159787  0.52224884  0.64459264  1
  C  C411  1  0.45441790  0.56463035  0.99309794  1
  C  C412  1  0.38377490  0.68700260  0.98944797  1
  O  O413  1  0.42711508  0.50273426  0.65720525  1
  C  C414  1  0.25078424  0.53835538  0.81015644  1
  C  C415  1  0.25556120  0.75815709  0.77589801  1
  C  C416  1  0.49387308  0.94377732  0.51312250  1
  H  H417  1  0.33850538  0.77372976  0.83997713  1
  H  H418  1  0.46208215  0.89054205  0.76792011  1
  C  C419  1  0.45524470  0.88572880  0.61795993  1
  H  H420  1  0.37829103  0.76425783  0.70478110  1
  H  H421  1  0.33596958  0.86875443  0.74602461  1
  O  O422  1  0.31796924  0.81639039  0.97664005  1
  H  H423  1  0.45993941  0.75749468  0.62890261  1
  H  H424  1  0.27601972  0.88327915  0.86529876  1
  H  H425  1  0.45184687  0.91738535  0.65992701  1
  H  H426  1  0.27885088  0.80773246  0.66155524  1
  C  C427  1  0.37588652  0.83777845  0.87455304  1
  C  C428  1  0.44424806  0.83564245  0.64271667  1
  C  C429  1  0.34092854  0.92020319  0.65058163  1
  C  C430  1  0.47658887  0.80061048  0.51953781  1
  C  C431  1  0.45555775  0.98334691  0.51226153  1
  H  H432  1  0.41880483  0.90359134  0.89879581  1
  C  C433  1  0.38955990  0.79441092  0.75163010  1
  C  C434  1  0.45809146  0.79306459  0.59765561  1
  C  C435  1  0.30302347  0.97652450  0.76084002  1
  H  H436  1  0.32393038  0.79119795  0.93204262  1
  C  C437  1  0.35012319  0.85169967  0.95111406  1
  H  H438  1  0.25943443  0.84743724  0.53041196  1
  H  H439  1  0.40205042  0.99490956  0.66276337  1
  H  H440  1  0.27322924  0.90786038  0.71020302  1
  H  H441  1  0.34166564  0.83977998  0.64189638  1
  C  C442  1  0.26782177  0.93551333  0.75539535  1
  C  C443  1  0.33951729  0.96598719  0.70833918  1
  C  C444  1  0.43328746  0.86649063  0.78585877  1
  C  C445  1  0.33733879  0.87316188  0.68193082  1
  C  C446  1  0.34215144  0.93073449  0.56193106  1
  H  H447  1  0.34766498  0.96891871  0.53512800  1
  C  C448  1  0.40983891  0.87312399  0.85816919  1
  C  C449  1  0.42252270  0.82893735  0.72619257  1
  C  C450  1  0.36590803  0.79692431  0.82421257  1
  C  C451  1  0.47197551  0.89407674  0.54001581  1
  C  C452  1  0.43869669  0.98754023  0.94618983  1
  O  O453  1  0.35093365  0.89064644  0.98407122  1
  C  C454  1  0.37591984  0.99854469  0.71077345  1
  C  C455  1  0.25447047  0.91444699  0.84015006  1
  O  O456  1  0.33354702  0.90850570  0.50199220  1
  H  H457  1  0.54110296  0.18462620  0.32189360  1
  C  C458  1  0.62417580  0.15156218  0.32741532  1
  O  O459  1  0.59617624  0.11989361  0.33191331  1
  C  C460  1  0.70843993  0.19261918  0.13711707  1
  C  C461  1  0.56673659  0.21468316  0.31928498  1
  C  C462  1  0.61322164  0.20407109  0.32117758  1
  O  O463  1  0.67080730  0.13835457  0.32292416  1
  H  H464  1  0.66984668  0.10361581  0.31860869  1
  H  H465  1  0.61130818  0.16605024  0.46249315  1
  H  H466  1  0.61107861  0.07284574  0.45215450  1
  C  C467  1  0.66688765  0.21924061  0.14287741  1
  C  C468  1  0.71147271  0.13914299  0.11376219  1
  H  H469  1  0.63471566  0.19772755  0.12877020  1
  O  O470  1  0.68312294  0.11014564  0.10360501  1
  H  H471  1  0.50356445  0.08810485  0.34223518  1
  H  H472  1  0.68381926  0.22956196  0.33150052  1
  C  C473  1  0.50482508  0.03435623  0.24131846  1
  H  H474  1  0.62501902  0.06452751  0.05895342  1
  O  O475  1  0.59641038  0.04701397  0.05922538  1
  C  C476  1  0.64790360  0.24073841  0.32268527  1
  O  O477  1  0.51181249  0.12343484  0.48112586  1
  C  C478  1  0.69385884  0.02603669  0.26945748  1
  H  H479  1  0.58400404  0.05260149  0.11069894  1
  Zn  Zn480  1  0.53449666  0.23575632  0.49602697  1
  H  H481  1  0.74384458  0.44268214  0.00132135  1
  C  C482  1  0.74929921  0.26785502  0.16039251  1
  C  C483  1  0.57874795  0.27055351  0.02457910  1
  Zn  Zn484  1  0.51536168  0.25832173  0.09311270  1
  C  C485  1  0.54418740  0.44649203  0.22479949  1
  C  C486  1  0.52929336  0.37015954  0.30612024  1
  C  C487  1  0.74833490  0.35329511  0.40743030  1
  C  C488  1  0.74408742  0.37327033  0.21329493  1
  O  O489  1  0.74135927  0.30989451  0.38545055  1
  H  H490  1  0.63210770  0.28687886  0.17107398  1
  C  C491  1  0.60360038  0.44130813  0.07449849  1
  C  C492  1  0.70110615  0.45325954  0.21164536  1
  C  C493  1  0.55305332  0.26436921  0.31483684  1
  H  H494  1  0.67225364  0.46322569  0.02619215  1
  H  H495  1  0.70105780  0.49284371  0.22069808  1
  H  H496  1  0.53256045  0.42247161  0.10189001  1
  C  C497  1  0.51487329  0.41643465  0.26914913  1
  O  O498  1  0.71618864  0.38403295  0.41433332  1
  H  H499  1  0.51747683  0.27512966  0.31395863  1
  C  C500  1  0.58956569  0.43121792  0.22010723  1
  C  C501  1  0.53832968  0.32854229  0.12711208  1
  C  C502  1  0.58780321  0.30026364  0.31557195  1
  H  H503  1  0.64161759  0.38269632  0.26722228  1
  H  H504  1  0.53351823  0.48039250  0.18857463  1
  C  C505  1  0.66524065  0.26849452  0.16636808  1
  H  H506  1  0.50305162  0.34716214  0.33099260  1
  H  H507  1  0.53377368  0.36396541  0.16631223  1
  C  C508  1  0.63433315  0.28961815  0.32342120  1
  C  C509  1  0.74055861  0.42482259  0.23007464  1
  C  C510  1  0.70836872  0.29385285  0.16357693  1
  C  C511  1  0.55797473  0.42758163  0.05605830  1
  C  C512  1  0.70788687  0.35006748  0.17133078  1
  H  H513  1  0.64443612  0.36333803  0.10102860  1
  C  C514  1  0.66831321  0.42883239  0.16735720  1
  C  C515  1  0.67055347  0.37870553  0.14170598  1
  C  C516  1  0.57382113  0.35343460  0.29928516  1
  C  C517  1  0.62134113  0.45541328  0.16068821  1
  C  C518  1  0.60504869  0.38914161  0.26422052  1
  C  C519  1  0.63619349  0.44887944  0.01473652  1
  C  C520  1  0.56836916  0.31473756  0.07534650  1
  H  H521  1  0.65765412  0.32031548  0.32629765  1
  C  C522  1  0.61523317  0.16749772  0.59177336  1
  C  C523  1  0.62229733  0.14054884  0.66347185  1
  C  C524  1  0.62367139  0.08980163  0.65951595  1
  C  C525  1  0.61655358  0.06616326  0.58242561  1
  C  C526  1  0.64106977  0.05977654  0.84387738  1
  H  H527  1  0.57930165  0.10351376  0.86202055  1
  C  C528  1  0.59461498  0.06794022  0.83934454  1
  H  H529  1  0.62704173  0.15944630  0.72136890  1
  C  C530  1  0.56759272  0.02809715  0.81719416  1
  H  H531  1  0.62619856  0.06787352  0.71146838  1
  C  C532  1  0.61647083  0.22239091  0.59588612  1
  H  H533  1  0.54082970  0.03529685  0.52665374  1
  H  H534  1  0.53037897  0.02759446  0.81754788  1
  C  C535  1  0.66658471  0.10306639  0.87784132  1
  H  H536  1  0.69909839  0.01023537  0.81696116  1
  O  O537  1  0.62976515  0.24294880  0.65997879  1
  O  O538  1  0.59883778  0.24576266  0.97879896  1
  C  C539  1  0.68218179  0.14044134  0.91020061  1
  H  H540  1  0.66955812  0.16773331  0.95327700  1
  C  C541  1  0.66393169  0.01423070  0.81737107  1
  C  C542  1  0.61567765  0.09264840  0.50971184  1
  C  C543  1  0.61409937  0.14411016  0.51669299  1
  O  O544  1  0.73603549  0.16408454  0.91773277  1
  H  H545  1  0.72638759  0.19944080  0.91335702  1
  C  C546  1  0.60505814  0.01019915  0.57599627  1
  O  O547  1  0.60694203  0.24533401  0.53496499  1
  C  C548  1  0.55938848  0.00282396  0.55066575  1
  H  H549  1  0.67496178  0.48242685  0.67274720  1
  C  C550  1  0.65572221  0.44318977  0.86452779  1
  H  H551  1  0.52171283  0.35453124  0.86485945  1
  O  O552  1  0.74853687  0.25378127  0.94385906  1
  C  C553  1  0.50014353  0.40881253  0.95322815  1
  C  C554  1  0.69816707  0.42110105  0.88369513  1
  C  C555  1  0.57916589  0.42789870  0.90801987  1
  O  O556  1  0.69529211  0.32981214  0.72246738  1
  C  C557  1  0.72023584  0.44169850  0.74741647  1
  C  C558  1  0.57391928  0.49918673  0.63858965  1
  C  C559  1  0.67767224  0.46222433  0.72859042  1
  C  C560  1  0.73155210  0.42106434  0.82492946  1
  C  C561  1  0.57930552  0.44597610  0.65582574  1
  C  C562  1  0.51727767  0.45009957  0.75076372  1
  H  H563  1  0.55760907  0.38378556  0.72749492  1
  H  H564  1  0.57236855  0.42005221  0.84434971  1
  C  C565  1  0.54834876  0.42353934  0.97236339  1
  C  C566  1  0.64284300  0.45942168  0.78660851  1
  O  O567  1  0.55917433  0.31320310  0.75967022  1
  H  H568  1  0.60884461  0.47545420  0.77207490  1
  O  O569  1  0.61305162  0.37088568  0.60517332  1
  O  O570  1  0.73900430  0.45653880  0.60789224  1
  H  H571  1  0.70254737  0.40489319  0.94338758  1
  C  C572  1  0.52432068  0.32148086  0.71638372  1
  C  C573  1  0.61174886  0.41747833  0.60327325  1
  Zn  Zn574  1  0.70003968  0.40282678  0.53269299  1
  C  C575  1  0.72786610  0.33349051  0.67475146  1
  O  O576  1  0.63554518  0.43982674  0.55114308  1
  C  C577  1  0.55241701  0.42465697  0.71320693  1
  O  O578  1  0.72334994  0.33980451  0.60059919  1
  Zn  Zn579  1  0.62474525  0.31819761  0.69259968  1
  C  C580  1  0.62235419  0.44301340  0.93336144  1
  H  H581  1  0.72296551  0.35013433  0.97924491  1
  C  C582  1  0.63215056  0.58649890  0.25510799  1
  C  C583  1  0.63383973  0.61457273  0.18515084  1
  C  C584  1  0.63052271  0.59303748  0.10755403  1
  H  H585  1  0.63922749  0.65467936  0.18537047  1
  C  C586  1  0.62652843  0.54057910  0.10764428  1
  H  H587  1  0.62230433  0.52258113  0.04800133  1
  C  C588  1  0.63840871  0.60426241  0.33947237  1
  C  C589  1  0.62760814  0.53367529  0.25138359  1
  C  C590  1  0.61721739  0.64559966  0.37637450  1
  C  C591  1  0.66670602  0.57561679  0.39733284  1
  C  C592  1  0.58474114  0.67113415  0.33047762  1
  H  H593  1  0.57985732  0.66444828  0.26517355  1
  H  H594  1  0.62707782  0.65682063  0.43626379  1
  C  C595  1  0.56079645  0.70718210  0.37763490  1
  H  H596  1  0.67544553  0.59216748  0.45893096  1
  H  H597  1  0.54201624  0.57588681  0.12821785  1
  H  H598  1  0.70648270  0.61517355  0.29240369  1
  O  O599  1  0.71604448  0.67520638  0.39796797  1
  H  H600  1  0.64387234  0.68712593  0.09767837  1
  O  O601  1  0.55134239  0.70863072  0.17518642  1
  C  C602  1  0.54190690  0.73270615  0.11788326  1
  C  C603  1  0.64108229  0.67359238  0.03615473  1
  H  H604  1  0.53230075  0.56846780  0.23793427  1
  O  O605  1  0.68720590  0.53720058  0.39899950  1
  C  C606  1  0.63209098  0.62104683  0.02840311  1
  C  C607  1  0.57200332  0.71384386  0.46201136  1
  H  H608  1  0.72816596  0.55825907  0.16193688  1
  O  O609  1  0.51359607  0.56451923  0.28570532  1
  C  C610  1  0.73588545  0.71165394  0.11299403  1
  C  C611  1  0.62472544  0.51107117  0.17737120  1
  C  C612  1  0.50683149  0.57236551  0.10810849  1
  H  H613  1  0.73433060  0.69657714  0.17283947  1
  Zn  Zn614  1  0.50817957  0.58281213  0.41851958  1
  H  H615  1  0.74083716  0.51653883  0.29166804  1
  H  H616  1  0.62811358  0.50973160  0.30667790  1
  C  C617  1  0.52436147  0.73220197  0.33880090  1
  H  H618  1  0.68662499  0.69949748  0.47294581  1
  C  C619  1  0.73732924  0.61751558  0.25901492  1
  H  H620  1  0.60242159  0.69673458  0.49089371  1
  H  H621  1  0.51344513  0.72564733  0.27466196  1
  H  H622  1  0.74822512  0.64335377  0.05328412  1
  C  C623  1  0.74869332  0.68305549  0.04739015  1
  H  H624  1  0.60762946  0.75091558  0.32098629  1
  O  O625  1  0.68759966  0.76506216  0.23571883  1
  H  H626  1  0.64226450  0.92107026  0.22672109  1
  C  C627  1  0.50350669  0.98571386  0.37229290  1
  C  C628  1  0.73853282  0.76561820  0.10524906  1
  H  H629  1  0.61800089  0.78089648  0.15570942  1
  C  C630  1  0.58708216  0.82466713  0.32250638  1
  H  H631  1  0.51438944  0.86526882  0.24821620  1
  C  C632  1  0.55341075  0.95542914  0.26640523  1
  O  O633  1  0.70313191  0.99310071  0.29993467  1
  C  C634  1  0.57021380  0.76387003  0.06246990  1
  C  C635  1  0.63419382  0.82067909  0.04223958  1
  C  C636  1  0.66472945  0.84473959  0.22740429  1
  C  C637  1  0.51341647  0.94619361  0.42543586  1
  C  C638  1  0.53124145  0.90320036  0.01541539  1
  C  C639  1  0.50935259  0.76862389  0.47056290  1
  H  H640  1  0.56252567  0.95629261  0.20463699  1
  C  C641  1  0.52766896  0.87598421  0.09512782  1
  H  H642  1  0.74616937  0.82954170  0.02631771  1
  C  C643  1  0.59819982  0.87372357  0.29794150  1
  C  C644  1  0.74512389  0.78927390  0.02983836  1
  C  C645  1  0.52356788  0.99286964  0.29553270  1
  C  C646  1  0.61103711  0.78529409  0.09130016  1
  C  C647  1  0.72102973  0.79251783  0.17986672  1
  H  H648  1  0.55660134  0.81445020  0.35279507  1
  H  H649  1  0.55001882  0.84512675  0.11339032  1
  C  C650  1  0.56479084  0.91529116  0.31812729  1
  H  H651  1  0.56351668  0.88258897  0.42964158  1
  C  C652  1  0.61769472  0.78803837  0.30125118  1
  C  C653  1  0.65685371  0.79679603  0.25621564  1
  C  C654  1  0.54555129  0.91167824  0.39617617  1
  H  H655  1  0.66111475  0.84299882  0.06502688  1
  C  C656  1  0.63604968  0.88377388  0.24871680  1
  O  O657  1  0.69960102  0.84795766  0.18303093  1
  C  C658  1  0.64134168  0.67868182  0.90077582  1
  O  O659  1  0.55140346  0.65830259  0.61233811  1
  C  C660  1  0.54017927  0.63396593  0.55474963  1
  H  H661  1  0.53651297  0.56512730  0.65580212  1
  C  C662  1  0.64604285  0.71262995  0.82628490  1
  C  C663  1  0.63623960  0.62865585  0.88527904  1
  H  H664  1  0.63319865  0.61236262  0.82302799  1
  O  O665  1  0.65028197  0.69147975  0.75884485  1
  Zn  Zn666  1  0.70758488  0.70145537  0.66539906  1
  C  C667  1  0.62811749  0.59760204  0.95236520  1
  C  C668  1  0.54001165  0.52507386  0.67401348  1
  O  O669  1  0.56768338  0.60575053  0.52100086  1
  H  H670  1  0.61664368  0.55948938  0.94135227  1
  H  H671  1  0.72631711  0.69896496  0.80298309  1
  H  H672  1  0.59670087  0.52073116  0.59699115  1
  H  H673  1  0.51291372  0.53878768  0.88393319  1
  C  C674  1  0.64554483  0.70590982  0.97274235  1
  C  C675  1  0.54897386  0.74836652  0.50894218  1
  H  H676  1  0.52805212  0.55938844  0.98712850  1
  O  O677  1  0.67090141  0.71253540  0.52255667  1
  H  H678  1  0.66934097  0.74857880  0.51200862  1
  H  H679  1  0.65127447  0.74646576  0.97886734  1
  C  C680  1  0.51017582  0.50018262  0.73005742  1
  H  H681  1  0.52319587  0.75213119  0.96088483  1
  H  H682  1  0.64835536  0.94261755  0.77148657  1
  C  C683  1  0.74002818  0.77227311  0.65802295  1
  H  H684  1  0.55733108  0.75438859  0.57188107  1
  C  C685  1  0.70124396  0.80474237  0.64299483  1
  C  C686  1  0.65387659  0.79068007  0.65405214  1
  H  H687  1  0.64424213  0.75286645  0.67421089  1
  C  C688  1  0.55427075  0.76953813  0.98236638  1
  Zn  Zn689  1  0.60136195  0.84278366  0.84260243  1
  C  C690  1  0.63851431  0.87749161  0.62438973  1
  C  C691  1  0.53852538  0.95620696  0.55939108  1
  H  H692  1  0.54674123  0.87780746  0.58275086  1
  H  H693  1  0.58657404  0.82133876  0.64975680  1
  O  O694  1  0.65286550  0.75656722  0.83381630  1
  H  H695  1  0.69433676  0.93033375  0.59585137  1
  C  C696  1  0.62912496  0.96952212  0.60813178  1
  C  C697  1  0.58042592  0.80139066  0.93819512  1
  C  C698  1  0.58793502  0.98388603  0.79570848  1
  C  C699  1  0.56304415  0.91509843  0.58691806  1
  H  H700  1  0.66326557  0.97643559  0.62946522  1
  O  O701  1  0.58608630  0.89970146  0.75981577  1
  C  C702  1  0.63463975  0.97635401  0.79329466  1
  H  H703  1  0.51296057  0.94912882  0.92111570  1
  O  O704  1  0.52057749  0.93395834  0.77722706  1
  C  C705  1  0.61869458  0.82717768  0.96256845  1
  C  C706  1  0.68545685  0.89154123  0.61400380  1
  C  C707  1  0.60937720  0.92181611  0.60784408  1
  C  C708  1  0.62258869  0.82785267  0.64144789  1
  C  C709  1  0.71670710  0.85323433  0.62405990  1
  C  C710  1  0.56101083  0.93717473  0.77429062  1
  H  H711  1  0.56201962  0.89197661  0.98589230  1
  C  C712  1  0.50379304  0.93468894  0.97905062  1
  C  C713  1  0.95826891  0.20266194  0.12881070  1
  O  O714  1  0.86429023  0.16491354  0.15485348  1
  C  C715  1  0.87933654  0.16674252  0.08947324  1
  H  H716  1  0.92097208  0.19232117  0.45241297  1
  C  C717  1  0.92745216  0.19010317  0.06841668  1
  H  H718  1  0.87098270  0.21272925  0.34017850  1
  C  C719  1  0.92549638  0.22761571  0.41951951  1
  H  H720  1  0.95283164  0.19667308  0.19337718  1
  H  H721  1  0.78167399  0.19269718  0.14749877  1
  O  O722  1  0.76027630  0.12153232  0.10959086  1
  C  C723  1  0.89818334  0.23952802  0.35531237  1
  O  O724  1  0.78071488  0.22424283  0.33606737  1
  H  H725  1  0.75730530  0.21475432  0.29695316  1
  H  H726  1  0.75210823  0.08922641  0.12556225  1
  O  O727  1  0.85655378  0.15244096  0.02720512  1
  C  C728  1  0.75031009  0.21659948  0.15004996  1
  C  C729  1  0.91297100  0.09047023  0.49834913  1
  H  H730  1  0.76840701  0.25755046  0.35427324  1
  H  H731  1  0.99859470  0.32875600  0.41595217  1
  H  H732  1  0.97806518  0.33145555  0.17934007  1
  H  H733  1  0.78815336  0.48516194  0.13595802  1
  C  C734  1  0.96844410  0.42228510  0.22476964  1
  O  O735  1  0.97469152  0.42887015  0.29331024  1
  H  H736  1  0.95323937  0.35167140  0.30155307  1
  C  C737  1  0.79421294  0.37002849  0.43732843  1
  C  C738  1  0.83471174  0.33428753  0.02699997  1
  H  H739  1  0.94668325  0.48356220  0.08961061  1
  H  H740  1  0.82700386  0.29695336  0.41047877  1
  C  C741  1  0.82899531  0.33396927  0.44106922  1
  C  C742  1  0.82545762  0.47940000  0.02716716  1
  O  O743  1  0.84659993  0.31085898  0.20383157  1
  C  C744  1  0.76830088  0.41318064  0.00262974  1
  H  H745  1  0.89984450  0.32293215  0.46937926  1
  H  H746  1  0.89499678  0.43991393  0.29479898  1
  H  H747  1  0.87979129  0.39442004  0.06167987  1
  H  H748  1  0.77467760  0.35329234  0.22846284  1
  C  C749  1  0.82426400  0.42546191  0.26272759  1
  C  C750  1  0.87138018  0.34998580  0.46775790  1
  H  H751  1  0.83283806  0.38994027  0.23889905  1
  C  C752  1  0.84326450  0.43675974  0.48129343  1
  C  C753  1  0.86032956  0.45306213  0.29402059  1
  H  H754  1  0.78142109  0.28836173  0.17370482  1
  C  C755  1  0.97734513  0.34022534  0.04664457  1
  C  C756  1  0.96448010  0.40815102  0.14028157  1
  C  C757  1  0.78083683  0.45017312  0.26378118  1
  C  C758  1  0.97380945  0.35557012  0.12667243  1
  C  C759  1  0.94400026  0.31781342  0.33412057  1
  C  C760  1  0.87221953  0.29831475  0.25321041  1
  C  C761  1  0.95697744  0.44525197  0.07590354  1
  C  C762  1  0.84604696  0.38408806  0.03820563  1
  C  C763  1  0.97096024  0.30421516  0.39905112  1
  C  C764  1  0.90579978  0.28536188  0.31499009  1
  C  C765  1  0.96340988  0.25826552  0.44275260  1
  C  C766  1  0.80068264  0.42090609  0.45396479  1
  H  H767  1  0.77519942  0.44797928  0.43535603  1
  C  C768  1  0.81444513  0.42202196  0.02003891  1
  C  C769  1  0.87747330  0.39977235  0.49845472  1
  H  H770  1  0.85766113  0.30340462  0.03975760  1
  H  H771  1  0.98515850  0.29910440  0.02812105  1
  H  H772  1  0.90754733  0.17552451  0.94598648  1
  O  O773  1  0.83405891  0.17414971  0.71843131  1
  C  C774  1  0.93551349  0.21348174  0.82140591  1
  Zn  Zn775  1  0.91736361  0.21219094  0.70325140  1
  C  C776  1  0.97354749  0.21702963  0.95777719  1
  C  C777  1  0.84862807  0.21175433  0.74513312  1
  C  C778  1  0.88796879  0.21815722  0.82263852  1
  Zn  Zn779  1  0.79129954  0.16951086  0.99870808  1
  C  C780  1  0.93325599  0.19344245  0.98551627  1
  C  C781  1  0.97514318  0.21937866  0.86722236  1
  O  O782  1  0.81367293  0.24304142  0.99249136  1
  H  H783  1  0.87049777  0.22658977  0.87953827  1
  O  O784  1  0.90093526  0.12178324  0.53118737  1
  H  H785  1  0.82209249  0.24387454  0.74219307  1
  C  C786  1  0.98803135  0.24485331  0.51809282  1
  H  H787  1  0.91571342  0.49570339  0.51027861  1
  C  C788  1  0.78226165  0.27332419  0.97511995  1
  H  H789  1  0.95279648  0.45324871  0.94771605  1
  C  C790  1  0.93471557  0.48442184  0.80745639  1
  C  C791  1  0.99347481  0.44094263  0.64352815  1
  H  H792  1  0.80567147  0.35681138  0.59636134  1
  H  H793  1  0.97338149  0.32338400  0.52701147  1
  H  H794  1  0.93089613  0.33901055  0.58016570  1
  C  C795  1  0.86872521  0.48510377  0.74516882  1
  C  C796  1  0.79328685  0.44674445  0.72086504  1
  C  C797  1  0.78026010  0.31569272  0.78808195  1
  H  H798  1  0.93020791  0.31974232  0.68434428  1
  C  C799  1  0.96444803  0.36301054  0.89949827  1
  H  H800  1  0.89513618  0.35164607  0.93443741  1
  C  C801  1  0.82624229  0.47889580  0.69221051  1
  C  C802  1  0.75168031  0.44750545  0.67759226  1
  C  C803  1  0.94377860  0.37863937  0.58203120  1
  C  C804  1  0.90923946  0.45658425  0.75481371  1
  H  H805  1  0.79735653  0.42704251  0.77752388  1
  H  H806  1  0.86627063  0.48620868  0.92352469  1
  C  C807  1  0.82277806  0.31553434  0.82304252  1
  H  H808  1  0.76501184  0.40342157  0.83851950  1
  C  C809  1  0.80963113  0.34155749  0.65755966  1
  C  C810  1  0.85777318  0.33525676  0.77705888  1
  C  C811  1  0.99713057  0.36803324  0.83611271  1
  C  C812  1  0.91994566  0.35017335  0.88584674  1
  H  H813  1  0.82686187  0.31149775  0.88976984  1
  C  C814  1  0.92074811  0.41703523  0.53791734  1
  C  C815  1  0.98365806  0.35109897  0.75987091  1
  C  C816  1  0.97198520  0.37802703  0.98673973  1
  C  C817  1  0.93412581  0.46724930  0.54340713  1
  C  C818  1  0.90632063  0.33964181  0.80503084  1
  C  C819  1  0.85139723  0.34724070  0.69491021  1
  C  C820  1  0.97166287  0.47817221  0.59423356  1
  C  C821  1  0.98062119  0.39067313  0.63099706  1
  C  C822  1  0.93945995  0.33293244  0.74536104  1
  H  H823  1  0.87880955  0.36629401  0.66138849  1
  H  H824  1  0.91867179  0.42446681  0.71503275  1
  C  C825  1  0.98911707  0.29075742  0.55795245  1
  C  C826  1  0.77414111  0.32981556  0.70925428  1
  H  H827  1  0.75031293  0.30453438  0.82580688  1
  C  C828  1  0.95943063  0.42935595  0.99897971  1
  C  C829  1  0.79120307  0.32772745  0.99363116  1
  C  C830  1  0.75727750  0.36245050  0.98940151  1
  H  H831  1  0.84869742  0.47615663  0.50045534  1
  C  C832  1  0.81260294  0.55894680  0.10039446  1
  C  C833  1  0.82619610  0.62664007  0.20472971  1
  H  H834  1  0.86141568  0.62932295  0.18522267  1
  H  H835  1  0.92256661  0.58951641  0.02873221  1
  H  H836  1  0.83618362  0.68565466  0.29382549  1
  H  H837  1  0.84979148  0.62056981  0.06309270  1
  H  H838  1  0.92405804  0.59799243  0.16725710  1
  C  C839  1  0.79522899  0.59068439  0.17051531  1
  C  C840  1  0.81216572  0.65889297  0.26563877  1
  C  C841  1  0.84133573  0.58303317  0.04531206  1
  H  H842  1  0.80760464  0.56775717  0.32734689  1
  C  C843  1  0.95202059  0.62468605  0.17817922  1
  C  C844  1  0.95715086  0.66160324  0.03215965  1
  H  H845  1  0.95107596  0.60706872  0.30627494  1
  C  C846  1  0.96543418  0.63140539  0.25669496  1
  C  C847  1  0.81045448  0.52843389  0.31402809  1
  C  C848  1  0.89645101  0.52682794  0.34273240  1
  O  O849  1  0.77546454  0.72351841  0.37989139  1
  C  C850  1  0.99602316  0.67039098  0.27666382  1
  O  O851  1  0.93204865  0.54462469  0.35686558  1
  C  C852  1  0.97209744  0.65693099  0.11799032  1
  C  C853  1  0.80686605  0.50605706  0.09265724  1
  C  C854  1  0.76719884  0.65240112  0.29065061  1
  O  O855  1  0.97991308  0.65579835  0.41294365  1
  C  C856  1  0.75254108  0.68628580  0.36105345  1
  C  C857  1  0.85370238  0.50343537  0.32570063  1
  C  C858  1  0.75073082  0.58450338  0.19746223  1
  C  C859  1  0.77489157  0.50138660  0.28632483  1
  H  H860  1  0.99183980  0.73301598  0.00072524  1
  H  H861  1  0.75146620  0.80481863  0.21942251  1
  C  C862  1  0.86051802  0.52516862  0.79504552  1
  C  C863  1  0.89122797  0.54708425  0.85139179  1
  C  C864  1  0.87435236  0.58961503  0.90237599  1
  H  H865  1  0.96553453  0.53515212  0.89288005  1
  H  H866  1  0.82595379  0.53832699  0.80159571  1
  H  H867  1  0.83597800  0.59284440  0.74378835  1
  C  C868  1  0.81830859  0.61751160  0.78660698  1
  C  C869  1  0.83254114  0.62126156  0.86288024  1
  C  C870  1  0.86045249  0.53817987  0.59747045  1
  C  C871  1  0.90833247  0.63163102  0.92468564  1
  H  H872  1  0.89323042  0.53870276  0.63156057  1
  C  C873  1  0.91811384  0.67205288  0.87485124  1
  H  H874  1  0.90331241  0.67507172  0.81459200  1
  C  C875  1  0.81051198  0.65008059  0.92280555  1
  C  C876  1  0.77216640  0.67728167  0.90076611  1
  C  C877  1  0.78056240  0.64950438  0.76129813  1
  H  H878  1  0.80597799  0.61042001  0.59572034  1
  C  C879  1  0.94873973  0.70738265  0.90454497  1
  C  C880  1  0.77445705  0.63452604  0.60511688  1
  C  C881  1  0.85701351  0.55885612  0.97585198  1
  O  O882  1  0.91501924  0.63733353  0.71588308  1
  H  H883  1  0.92667655  0.66975309  0.69764984  1
  H  H884  1  0.91741776  0.61629246  0.67242500  1
  O  O885  1  0.94532042  0.68821579  0.59168506  1
  C  C886  1  0.85121245  0.50651990  0.97083296  1
  C  C887  1  0.93591280  0.52403256  0.85788137  1
  C  C888  1  0.82464191  0.50585611  0.61929665  1
  C  C889  1  0.96883803  0.70324798  0.98192435  1
  C  C890  1  0.76471621  0.64967127  0.67901882  1
  H  H891  1  0.79353363  0.50119544  0.58259697  1
  H  H892  1  0.82371960  0.72211666  0.83310893  1
  O  O893  1  0.86840646  0.56694780  0.54490738  1
  C  C894  1  0.75798947  0.68076475  0.81914959  1
  H  H895  1  0.75501037  0.64774932  0.55045932  1
  C  C896  1  0.96333184  0.74904694  0.84592394  1
  H  H897  1  0.82150282  0.65055984  0.98483143  1
  C  C898  1  0.75356034  0.70850010  0.97163778  1
  C  C899  1  0.93080193  0.62392659  0.99743610  1
  C  C900  1  0.99295566  0.52877762  0.60320674  1
  H  H901  1  0.97829553  0.53045902  0.73331603  1
  H  H902  1  0.94785596  0.68430895  0.53271917  1
  C  C903  1  0.99485977  0.54983263  0.68177484  1
  H  H904  1  0.97550672  0.69652431  0.60670154  1
  H  H905  1  0.75075102  0.86006053  0.61282767  1
  O  O906  1  0.75160841  0.88683207  0.92484010  1
  H  H907  1  0.75480893  0.77695891  0.89966112  1
  C  C908  1  0.93545938  0.78543734  0.80928903  1
  H  H909  1  0.89841126  0.78330800  0.82564903  1
  O  O910  1  0.83736504  0.75345261  0.81218764  1
  H  H911  1  0.93682346  0.85314875  0.72721478  1
  H  H912  1  0.82360340  0.75913486  0.76176701  1
  C  C913  1  0.75005291  0.75999964  0.95905312  1
  O  O914  1  0.99294377  0.88737659  0.64386633  1
  O  O915  1  0.77938125  0.77481483  0.66772243  1
  C  C916  1  0.95543537  0.82073571  0.75828826  1
  C  C917  1  0.76334718  0.86829761  0.87264714  1
