# generated using pymatgen
data_CuH4C8(NO)2
_symmetry_space_group_name_H-M   'P 1'
_cell_length_a   21.01535274
_cell_length_b   27.73330826
_cell_length_c   22.68107850
_cell_angle_alpha   90.00000000
_cell_angle_beta   90.00000000
_cell_angle_gamma   90.00000000
_symmetry_Int_Tables_number   1
_chemical_formula_structural   CuH4C8(NO)2
_chemical_formula_sum   'Cu64 H256 C512 N128 O128'
_cell_volume   13219.10537244
_cell_formula_units_Z   64
loop_
 _symmetry_equiv_pos_site_id
 _symmetry_equiv_pos_as_xyz
  1  'x, y, z'
loop_
 _atom_site_type_symbol
 _atom_site_label
 _atom_site_symmetry_multiplicity
 _atom_site_fract_x
 _atom_site_fract_y
 _atom_site_fract_z
 _atom_site_occupancy
  C  C0  1  0.03648166  0.01955169  0.45607420  1
  C  C1  1  0.05062231  0.05365454  0.10528367  1
  N  N2  1  0.03875834  0.03593556  0.05280370  1
  C  C3  1  0.07845441  0.10261110  0.09590043  1
  H  H4  1  0.03630174  0.11167946  0.41603463  1
  C  C5  1  0.08096239  0.13362165  0.14640943  1
  C  C6  1  0.06131896  0.11419950  0.20225744  1
  H  H7  1  0.09796213  0.17194321  0.14138743  1
  H  H8  1  0.13173430  0.14052436  0.34527251  1
  C  C9  1  0.08157463  0.15715982  0.34917207  1
  C  C10  1  0.03178436  0.14476576  0.38901922  1
  N  N11  1  0.20731694  0.06347225  0.06475896  1
  C  C12  1  0.21810821  0.09280445  0.10804945  1
  C  C13  1  0.22415162  0.06079981  0.16251787  1
  C  C14  1  0.03017903  0.03293412  0.16069661  1
  H  H15  1  0.06503360  0.13765151  0.24306288  1
  C  C16  1  0.03407377  0.06659537  0.20844872  1
  C  C17  1  0.08621315  0.11141441  0.03276392  1
  C  C18  1  0.06428378  0.19969296  0.31961854  1
  H  H19  1  0.02058754  0.05438585  0.25141173  1
  C  C20  1  0.21869130  0.01043773  0.14601390  1
  C  C21  1  0.22177196  0.14436331  0.11045479  1
  O  O22  1  0.11015607  0.19501280  0.02296839  1
  H  H23  1  0.22777640  0.16862367  0.06943744  1
  C  C24  1  0.22327124  0.13676380  0.21660517  1
  H  H25  1  0.22449534  0.15467121  0.26061815  1
  H  H26  1  0.22993627  0.06911562  0.26076966  1
  C  C27  1  0.22649071  0.08642223  0.21617474  1
  C  C28  1  0.21311670  0.16694467  0.16544074  1
  H  H29  1  0.21188561  0.20591290  0.16951147  1
  N  N30  1  0.07190679  0.07403243  0.00402916  1
  N  N31  1  0.20434869  0.00653293  0.09258203  1
  O  O32  1  0.09723198  0.22494782  0.45549359  1
  C  C33  1  0.24976215  0.01924245  0.43452102  1
  C  C34  1  0.23625920  0.06684937  0.45732450  1
  C  C35  1  0.01529004  0.23141344  0.31081149  1
  C  C36  1  0.11191869  0.15558627  0.00154268  1
  H  H37  1  0.20869128  0.07376294  0.49914133  1
  H  H38  1  0.00047966  0.42161603  0.16924115  1
  H  H39  1  0.21329557  0.48457923  0.40949080  1
  C  C40  1  0.06967540  0.45870011  0.29268779  1
  C  C41  1  0.07781847  0.48566662  0.45444433  1
  C  C42  1  0.18781438  0.32094555  0.03629409  1
  C  C43  1  0.12097544  0.33830162  0.03101210  1
  H  H44  1  0.03487274  0.35180658  0.07292130  1
  H  H45  1  0.14484392  0.34542975  0.48838069  1
  N  N46  1  0.00284412  0.46694761  0.37958302  1
  C  C47  1  0.11004748  0.47589491  0.39923549  1
  H  H48  1  0.07517599  0.32546362  0.17595407  1
  C  C49  1  0.08320439  0.33885832  0.08211252  1
  H  H50  1  0.19572799  0.30799668  0.18325585  1
  H  H51  1  0.15075788  0.45905992  0.23023991  1
  C  C52  1  0.13352171  0.46407757  0.27602615  1
  C  C53  1  0.17330860  0.31180973  0.14119914  1
  C  C54  1  0.17340800  0.47595033  0.37856099  1
  H  H55  1  0.04683489  0.47072613  0.14888663  1
  H  H56  1  0.23321349  0.47021179  0.30149178  1
  C  C57  1  0.18514293  0.47083663  0.31676897  1
  C  C58  1  0.21458474  0.30725979  0.09267199  1
  C  C59  1  0.05778359  0.46526018  0.35504245  1
  C  C60  1  0.10792197  0.32634748  0.13681973  1
  H  H61  1  0.04105386  0.29651131  0.42156438  1
  H  H62  1  0.03076888  0.45115344  0.25903029  1
  N  N63  1  0.01828908  0.48123103  0.44809338  1
  H  H64  1  0.01792137  0.26154828  0.28033637  1
  H  H65  1  0.01943360  0.37781594  0.38451472  1
  Cu  Cu66  1  0.07329565  0.06204378  0.92343741  1
  N  N67  1  0.04796122  0.09077942  0.79711219  1
  O  O68  1  0.13679972  0.14878623  0.94826824  1
  H  H69  1  0.09699151  0.19054303  0.71646177  1
  O  O70  1  0.11365379  0.09505158  0.58059708  1
  Cu  Cu71  1  0.05295521  0.15159828  0.59159487  1
  N  N72  1  0.09394379  0.05744717  0.84489194  1
  C  C73  1  0.06508355  0.07984642  0.74994084  1
  O  O74  1  0.04709376  0.13697595  0.67381358  1
  C  C75  1  0.12498549  0.05019886  0.75050674  1
  C  C76  1  0.13530053  0.03444936  0.81217890  1
  C  C77  1  0.16395298  0.03784483  0.70205497  1
  N  N78  1  0.09779617  0.21861289  0.61105279  1
  H  H79  1  0.15346172  0.04899614  0.65561888  1
  Cu  Cu80  1  0.21068490  0.17194293  0.92478254  1
  N  N81  1  0.17025514  0.18515190  0.84076862  1
  H  H82  1  0.06617604  0.20103944  0.91525044  1
  C  C83  1  0.12596134  0.22253232  0.70909994  1
  C  C84  1  0.03206903  0.09417746  0.69100851  1
  C  C85  1  0.16999894  0.21440670  0.80290279  1
  H  H86  1  0.14753606  0.15302192  0.82870519  1
  C  C87  1  0.10815449  0.05492507  0.55015469  1
  C  C88  1  0.02818939  0.22476540  0.90447504  1
  Cu  Cu89  1  0.18654669  0.06489792  0.98682612  1
  O  O90  1  0.14256023  0.02189425  0.55463981  1
  N  N91  1  0.24676490  0.02777054  0.95507259  1
  O  O92  1  0.23275640  0.10984972  0.88760217  1
  O  O93  1  0.05752855  0.17025589  0.51363263  1
  C  C94  1  0.16587802  0.24352324  0.75416309  1
  C  C95  1  0.18716635  0.00302171  0.82267776  1
  N  N96  1  0.00513286  0.07984897  0.51144953  1
  C  C97  1  0.08265491  0.21238354  0.50339319  1
  C  C98  1  0.21845219  0.00901837  0.71518237  1
  C  C99  1  0.04611673  0.05210824  0.50795039  1
  O  O100  1  0.00369546  0.06544433  0.66419542  1
  C  C101  1  0.12500110  0.24565822  0.65421005  1
  C  C102  1  0.10009068  0.23993143  0.55970547  1
  H  H103  1  0.01781367  0.23396130  0.70040015  1
  C  C104  1  0.00058018  0.37912457  0.63389543  1
  C  C105  1  0.10249862  0.35330401  0.97154390  1
  H  H106  1  0.00534367  0.34007576  0.84466351  1
  N  N107  1  0.21079193  0.32592824  0.98320824  1
  H  H108  1  0.12388992  0.44604478  0.89601788  1
  C  C109  1  0.07522967  0.48925164  0.76212421  1
  C  C110  1  0.13212067  0.48085015  0.72889324  1
  C  C111  1  0.02214674  0.42424160  0.65505739  1
  N  N112  1  0.15356753  0.35072196  0.93960686  1
  C  C113  1  0.12536649  0.28530297  0.54789054  1
  H  H114  1  0.08628560  0.26905559  0.84738235  1
  C  C115  1  0.16182906  0.36447247  0.67821252  1
  N  N116  1  0.23919052  0.45145093  0.84819577  1
  C  C117  1  0.14642591  0.32439741  0.53077399  1
  C  C118  1  0.03545907  0.38409502  0.95889960  1
  O  O119  1  0.03887685  0.41196954  0.91656284  1
  H  H120  1  0.19358153  0.27647335  0.74586609  1
  C  C121  1  0.07119571  0.48098909  0.82444396  1
  C  C122  1  0.18778794  0.46433488  0.82144990  1
  H  H123  1  0.02625979  0.48256067  0.85121504  1
  C  C124  1  0.19074687  0.47595483  0.75584140  1
  N  N125  1  0.21994183  0.36082428  0.77099204  1
  C  C126  1  0.12779374  0.46548605  0.85240765  1
  O  O127  1  0.17310852  0.37437480  0.56782371  1
  O  O128  1  0.12022797  0.34909037  0.83276527  1
  H  H129  1  0.13883480  0.28291404  0.64296630  1
  O  O130  1  0.05444991  0.36221941  0.75553991  1
  C  C131  1  0.10593750  0.35642509  0.77549606  1
  H  H132  1  0.06232966  0.42737484  0.68911301  1
  Cu  Cu133  1  0.19210073  0.36068112  0.85976964  1
  C  C134  1  0.16538754  0.36905730  0.62443883  1
  H  H135  1  0.03170641  0.34514685  0.64205557  1
  C  C136  1  0.03856780  0.26677487  0.86819184  1
  C  C137  1  0.16499239  0.35830368  0.73897669  1
  C  C138  1  0.24901404  0.47542051  0.72050479  1
  H  H139  1  0.24936253  0.35104461  0.69244792  1
  H  H140  1  0.13081083  0.48107730  0.67995456  1
  H  H141  1  0.03415003  0.49627630  0.73117772  1
  N  N142  1  0.12992738  0.61520860  0.19272357  1
  Cu  Cu143  1  0.13062004  0.61213757  0.11021456  1
  C  C144  1  0.16986206  0.63899927  0.28820959  1
  N  N145  1  0.11334765  0.60579303  0.03087677  1
  N  N146  1  0.18046153  0.64935815  0.23117097  1
  C  C147  1  0.10033715  0.58880691  0.22878286  1
  C  C148  1  0.12332530  0.59818040  0.28817568  1
  C  C149  1  0.19795709  0.62957041  0.38966409  1
  Cu  Cu150  1  0.06575594  0.68642567  0.08637026  1
  C  C151  1  0.11223192  0.57820949  0.34473358  1
  C  C152  1  0.15227271  0.59183056  0.39089079  1
  H  H153  1  0.14550651  0.56851510  0.43108545  1
  N  N154  1  0.12754699  0.71482625  0.03864100  1
  H  H155  1  0.06295624  0.64805904  0.39305633  1
  C  C156  1  0.20312210  0.65721282  0.33759720  1
  H  H157  1  0.07367642  0.55000764  0.35377148  1
  C  C158  1  0.05395745  0.55686812  0.20025180  1
  O  O159  1  0.18997490  0.69282381  0.13599148  1
  O  O160  1  0.05403326  0.55280335  0.14569497  1
  C  C161  1  0.18885617  0.71712243  0.03871731  1
  C  C162  1  0.22019270  0.69554843  0.09095117  1
  N  N163  1  0.03870974  0.59193213  0.01826778  1
  H  H164  1  0.03007677  0.57439317  0.46314834  1
  H  H165  1  0.20884999  0.67168308  0.20576026  1
  O  O166  1  0.01316836  0.53568977  0.23416869  1
  N  N167  1  0.01417569  0.72465288  0.17697674  1
  H  H168  1  0.02483231  0.72615605  0.22137629  1
  H  H169  1  0.00549426  0.64651553  0.25809832  1
  H  H170  1  0.21847712  0.64344142  0.43160290  1
  C  C171  1  0.01628754  0.63132958  0.39225132  1
  H  H172  1  0.23829948  0.68794477  0.33480814  1
  H  H173  1  0.24159664  0.63583436  0.00466338  1
  O  O174  1  0.07806758  0.71909071  0.49870985  1
  H  H175  1  0.22690269  0.98856631  0.45859053  1
  O  O176  1  0.22973248  0.75814793  0.39664059  1
  H  H177  1  0.07132159  0.92785441  0.35965540  1
  H  H178  1  0.11374063  0.96945672  0.45002751  1
  O  O179  1  0.21639608  0.92715102  0.18076842  1
  O  O180  1  0.03935138  0.77128228  0.43585731  1
  C  C181  1  0.00492911  0.88087861  0.48042508  1
  N  N182  1  0.01665549  0.86002992  0.29832883  1
  C  C183  1  0.21651777  0.76997215  0.34807148  1
  Cu  Cu184  1  0.15272528  0.91342011  0.13137900  1
  H  H185  1  0.02115577  0.81575913  0.38169941  1
  H  H186  1  0.18985789  0.81799166  0.06495245  1
  H  H187  1  0.01555683  0.99489826  0.16737001  1
  C  C188  1  0.10759342  0.85789338  0.36389746  1
  C  C189  1  0.24499599  0.76714890  0.28795529  1
  H  H190  1  0.11645804  0.80578701  0.24675789  1
  C  C191  1  0.19727069  0.81026306  0.11399443  1
  H  H192  1  0.17198811  0.79309231  0.35667637  1
  C  C193  1  0.18533080  0.88909424  0.29614130  1
  C  C194  1  0.22342414  0.86615126  0.39803569  1
  N  N195  1  0.05180881  0.83811090  0.36036679  1
  C  C196  1  0.04484110  0.91220576  0.21599005  1
  C  C197  1  0.11719398  0.88269279  0.30616684  1
  C  C198  1  0.15537943  0.80404896  0.21528490  1
  C  C199  1  0.14788213  0.81773648  0.15762648  1
  C  C200  1  0.23106310  0.97256909  0.19287068  1
  H  H201  1  0.10517030  0.83671538  0.14300328  1
  C  C202  1  0.11694419  0.89523028  0.01893298  1
  C  C203  1  0.21651635  0.78348124  0.23187320  1
  C  C204  1  0.22108391  0.87803454  0.34473198  1
  Cu  Cu205  1  0.18521027  0.96000856  0.03612078  1
  C  C206  1  0.04478011  0.95775555  0.37870323  1
  O  O207  1  0.09556280  0.93336866  0.19406128  1
  H  H208  1  0.20855722  0.90084249  0.25565821  1
  C  C209  1  0.15178643  0.84930033  0.41475755  1
  O  O210  1  0.15840616  0.86486670  0.01138315  1
  H  H211  1  0.13292703  0.87362544  0.44958058  1
  O  O212  1  0.09501980  0.89904302  0.07429389  1
  H  H213  1  0.14524340  0.81149339  0.43432822  1
  C  C214  1  0.05941901  0.88446253  0.27066853  1
  C  C215  1  0.07079770  0.98147477  0.42814184  1
  C  C216  1  0.06327549  0.76266652  0.48304619  1
  H  H217  1  0.08522336  0.56296135  0.84717113  1
  C  C218  1  0.11926438  0.57442149  0.87995208  1
  Cu  Cu219  1  0.20989686  0.54776678  0.56554742  1
  O  O220  1  0.19570517  0.68680289  0.54437057  1
  C  C221  1  0.21370518  0.64258854  0.54416689  1
  H  H222  1  0.19427555  0.66705447  0.72379329  1
  O  O223  1  0.18112849  0.60903963  0.56893105  1
  Cu  Cu224  1  0.12087459  0.70428020  0.57564747  1
  C  C225  1  0.18830102  0.70646430  0.72486227  1
  C  C226  1  0.09417378  0.58717126  0.93678703  1
  C  C227  1  0.18397988  0.58693167  0.87005534  1
  C  C228  1  0.03225236  0.58345765  0.96359365  1
  C  C229  1  0.08090866  0.70417060  0.78113854  1
  O  O230  1  0.09691413  0.62056880  0.76122123  1
  C  C231  1  0.06601272  0.65137581  0.78717916  1
  O  O232  1  0.04505457  0.71466228  0.61806499  1
  N  N233  1  0.10127244  0.73977293  0.97508796  1
  C  C234  1  0.13119217  0.72742206  0.74859594  1
  C  C235  1  0.20973769  0.73683852  0.98268949  1
  H  H236  1  0.19981829  0.57999022  0.82392155  1
  O  O237  1  0.02054349  0.63995561  0.82177598  1
  N  N238  1  0.04741484  0.73815564  0.80548584  1
  C  C239  1  0.20830181  0.61696174  0.97053071  1
  O  O240  1  0.20748528  0.51733746  0.63588760  1
  Cu  Cu241  1  0.01230473  0.73745764  0.96580902  1
  C  C242  1  0.14309194  0.60502151  0.98059751  1
  O  O243  1  0.08008898  0.50917479  0.55551561  1
  C  C244  1  0.22670297  0.60813552  0.91188467  1
  O  O245  1  0.16923248  0.51358220  0.50920386  1
  C  C246  1  0.23411929  0.73652757  0.69583335  1
  C  C247  1  0.10940402  0.50170050  0.51289254  1
  C  C248  1  0.15370546  0.74965422  0.94587658  1
  C  C249  1  0.22865282  0.99256913  0.77460010  1
  N  N250  1  0.02782134  0.96933958  0.90651368  1
  C  C251  1  0.22751888  0.76535922  0.86379755  1
  C  C252  1  0.05033568  0.86853467  0.58381988  1
  H  H253  1  0.04087946  0.96985309  0.78237954  1
  C  C254  1  0.24686870  0.95844720  0.57713742  1
  H  H255  1  0.23484805  0.99726902  0.57967130  1
  C  C256  1  0.17146441  0.80884131  0.72360271  1
  H  H257  1  0.24722897  0.99605027  0.67880458  1
  C  C258  1  0.15376135  0.88551633  0.87890646  1
  C  C259  1  0.16470390  0.76579392  0.88569135  1
  C  C260  1  0.06356677  0.80356498  0.52741852  1
  N  N261  1  0.04878479  0.95582428  0.97180133  1
  H  H262  1  0.14603633  0.93643183  0.59379698  1
  C  C263  1  0.06622041  0.94723312  0.86980581  1
  Cu  Cu264  1  0.03004164  0.84325075  0.80900750  1
  H  H265  1  0.19735549  0.98665059  0.86564555  1
  N  N266  1  0.24364135  0.96785436  0.97399551  1
  C  C267  1  0.12515036  0.78121651  0.75174474  1
  C  C268  1  0.06730112  0.94385601  0.80778991  1
  H  H269  1  0.18905132  0.86498319  0.79210097  1
  H  H270  1  0.23079213  0.77466851  0.81570127  1
  C  C271  1  0.03287871  0.91563439  0.60024452  1
  C  C272  1  0.10769953  0.91435262  0.90738429  1
  H  H273  1  0.16625384  0.84882092  0.71758953  1
  C  C274  1  0.09288610  0.92253043  0.96882055  1
  Cu  Cu275  1  0.01313507  0.79758040  0.69052469  1
  H  H276  1  0.12737203  0.77628121  0.85592861  1
  H  H277  1  0.16503093  0.84880365  0.57521088  1
  N  N278  1  0.07964783  0.83248120  0.61599606  1
  C  C279  1  0.15403532  0.88608527  0.81612568  1
  C  C280  1  0.10972620  0.91159073  0.78117459  1
  H  H281  1  0.04274134  0.92984403  0.64517781  1
  N  N282  1  0.07290045  0.79033273  0.78067243  1
  C  C283  1  0.20676479  0.87546857  0.57047898  1
  C  C284  1  0.22468623  0.78755380  0.69636390  1
  H  H285  1  0.18460349  0.86291376  0.90491612  1
  C  C286  1  0.03376655  0.84996374  0.52331930  1
  N  N287  1  0.08892951  0.79425688  0.58033551  1
  C  C288  1  0.19452363  0.92367470  0.58262216  1
  H  H289  1  0.11342998  0.91337493  0.73252403  1
  C  C290  1  0.29769232  0.18565851  0.32032594  1
  C  C291  1  0.30754813  0.13117924  0.32120274  1
  N  N292  1  0.33857364  0.10946104  0.28225186  1
  O  O293  1  0.31073200  0.21123885  0.27238738  1
  N  N294  1  0.37799278  0.10689763  0.07931283  1
  Cu  Cu295  1  0.38014370  0.12670445  0.21098095  1
  N  N296  1  0.40330769  0.14666640  0.12818215  1
  C  C297  1  0.39699845  0.11990377  0.02657242  1
  Cu  Cu298  1  0.33519941  0.06190134  0.11994095  1
  N  N299  1  0.32615169  0.05205180  0.29342415  1
  C  C300  1  0.44072256  0.16251758  0.03807790  1
  Cu  Cu301  1  0.38956965  0.22123546  0.23144959  1
  C  C302  1  0.43503566  0.17524190  0.10171124  1
  O  O303  1  0.43672219  0.20815131  0.30321714  1
  N  N304  1  0.46688211  0.12307899  0.23280704  1
  Cu  Cu305  1  0.47300761  0.04585724  0.13984291  1
  C  C306  1  0.47158532  0.21398254  0.13089788  1
  C  C307  1  0.28586497  0.10017074  0.36930140  1
  C  C308  1  0.29890175  0.05057437  0.34490238  1
  H  H309  1  0.45038637  0.08755330  0.38866475  1
  C  C310  1  0.45271448  0.04845197  0.37882857  1
  O  O311  1  0.46296302  0.22604877  0.18424846  1
  O  O312  1  0.26840887  0.20129959  0.36042690  1
  C  C313  1  0.49044106  0.18848391  0.30241779  1
  Cu  Cu314  1  0.35572059  0.01251668  0.23759347  1
  H  H315  1  0.49447424  0.18742026  0.44468054  1
  C  C316  1  0.25914775  0.10670339  0.42563597  1
  C  C317  1  0.42686078  0.01100119  0.41466302  1
  C  C318  1  0.48375257  0.03189596  0.32741202  1
  C  C319  1  0.49168078  0.10979668  0.47085940  1
  N  N320  1  0.38127634  0.00679392  0.11020755  1
  H  H321  1  0.39705995  0.02159003  0.45076974  1
  H  H322  1  0.43975429  0.10883289  0.48207299  1
  H  H323  1  0.25210655  0.14346328  0.44136526  1
  C  C324  1  0.27602114  0.00956598  0.37896260  1
  C  C325  1  0.34213388  0.48983441  0.39642284  1
  C  C326  1  0.29334860  0.41038865  0.19886506  1
  N  N327  1  0.30920451  0.41272113  0.44760527  1
  C  C328  1  0.29938507  0.32709424  0.28658397  1
  H  H329  1  0.26103431  0.29151320  0.09609085  1
  N  N330  1  0.35885395  0.29208466  0.14349276  1
  O  O331  1  0.33468059  0.40274391  0.06777320  1
  C  C332  1  0.44211371  0.42956848  0.34556541  1
  H  H333  1  0.47669478  0.45067659  0.08749430  1
  C  C334  1  0.27961930  0.40550324  0.25689506  1
  C  C335  1  0.34349714  0.33801196  0.13101570  1
  N  N336  1  0.33625587  0.36988954  0.45861402  1
  H  H337  1  0.48134909  0.40685228  0.33006841  1
  H  H338  1  0.29668733  0.29548279  0.31583238  1
  C  C339  1  0.31503904  0.36141609  0.18098770  1
  H  H340  1  0.29769896  0.44369452  0.17538709  1
  H  H341  1  0.31573137  0.47123817  0.06150137  1
  C  C342  1  0.42809915  0.32443166  0.42194903  1
  C  C343  1  0.34310470  0.43969977  0.40788906  1
  C  C344  1  0.43411039  0.47910018  0.33067147  1
  H  H345  1  0.42857887  0.42706885  0.47039115  1
  C  C346  1  0.27769304  0.37462480  0.30429469  1
  H  H347  1  0.46518104  0.49691929  0.29656769  1
  O  O348  1  0.41427099  0.29028224  0.45221536  1
  C  C349  1  0.46997511  0.41891064  0.00402660  1
  C  C350  1  0.39446315  0.40970283  0.38450429  1
  Cu  Cu351  1  0.45480520  0.32127490  0.01105997  1
  O  O352  1  0.36783457  0.33448742  0.02684999  1
  C  C353  1  0.38556341  0.36608231  0.42099116  1
  N  N354  1  0.34000641  0.28201308  0.19836429  1
  O  O355  1  0.48316590  0.32393221  0.39065699  1
  C  C356  1  0.34849965  0.35967459  0.07099948  1
  C  C357  1  0.31448220  0.32340453  0.22693397  1
  H  H358  1  0.26857595  0.38468097  0.35194543  1
  C  C359  1  0.49038604  0.45519913  0.04125131  1
  H  H360  1  0.40829884  0.11461703  0.87380623  1
  C  C361  1  0.41714263  0.12576207  0.91957830  1
  C  C362  1  0.45940723  0.16417557  0.93069089  1
  C  C363  1  0.32491632  0.22385701  0.94383375  1
  O  O364  1  0.28943476  0.19770903  0.90763150  1
  O  O365  1  0.31185153  0.08872334  0.83397285  1
  C  C366  1  0.38591610  0.10385944  0.96892139  1
  H  H367  1  0.35258033  0.07145396  0.96328332  1
  H  H368  1  0.33542712  0.19788548  0.80951238  1
  C  C369  1  0.37847534  0.22055639  0.80371393  1
  C  C370  1  0.34588581  0.06354463  0.59926149  1
  H  H371  1  0.40243799  0.19905615  0.71405198  1
  C  C372  1  0.27742679  0.08138293  0.87404155  1
  O  O373  1  0.36890471  0.05968319  0.55372690  1
  C  C374  1  0.28093114  0.03095672  0.90852012  1
  C  C375  1  0.47020613  0.18132023  0.98916156  1
  O  O376  1  0.30517279  0.23138934  0.99250389  1
  O  O377  1  0.32094283  0.06909912  0.64562699  1
  C  C378  1  0.41310515  0.22222528  0.75123681  1
  H  H379  1  0.48137429  0.18578403  0.89327275  1
  O  O380  1  0.47288993  0.15560125  0.61308499  1
  C  C381  1  0.39689700  0.24806649  0.85349617  1
  H  H382  1  0.49156935  0.04891617  0.71840941  1
  C  C383  1  0.49951709  0.04501762  0.76520609  1
  H  H384  1  0.38737591  0.00660671  0.98074875  1
  H  H385  1  0.49874686  0.21617687  0.99718563  1
  H  H386  1  0.49669505  0.25344527  0.70282280  1
  C  C387  1  0.46593448  0.25438510  0.74435289  1
  C  C388  1  0.48798408  0.28412104  0.78914772  1
  C  C389  1  0.42790266  0.43922331  0.56087584  1
  C  C390  1  0.46932310  0.44548369  0.61009239  1
  H  H391  1  0.37777018  0.44497455  0.56105629  1
  N  N392  1  0.45895309  0.45655616  0.66404768  1
  H  H393  1  0.49340614  0.28119820  0.53520591  1
  C  C394  1  0.37715875  0.25170110  0.91535740  1
  C  C395  1  0.36102894  0.35575770  0.80805607  1
  Cu  Cu396  1  0.25916958  0.42960672  0.92492191  1
  C  C397  1  0.33401689  0.35528468  0.75111696  1
  C  C398  1  0.34711394  0.47958187  0.94326129  1
  N  N399  1  0.35734184  0.44931452  0.90874176  1
  N  N400  1  0.46038762  0.30125878  0.89574060  1
  Cu  Cu401  1  0.43720737  0.49561858  0.88082338  1
  C  C402  1  0.45365897  0.27962446  0.84278470  1
  H  H403  1  0.41525313  0.34911732  0.81298913  1
  Cu  Cu404  1  0.37171986  0.38172450  0.93321260  1
  N  N405  1  0.28466882  0.36430818  0.89484171  1
  N  N406  1  0.41843120  0.28382455  0.93699238  1
  Cu  Cu407  1  0.32423907  0.45450090  0.82241161  1
  O  O408  1  0.30342809  0.48680365  0.62982129  1
  H  H409  1  0.37084426  0.34696758  0.71676724  1
  N  N410  1  0.42143546  0.47704906  0.78936940  1
  C  C411  1  0.31991919  0.36017765  0.85574115  1
  C  C412  1  0.26821335  0.35761586  0.73572633  1
  Cu  Cu413  1  0.38378259  0.47286680  0.70454204  1
  Cu  Cu414  1  0.28764121  0.31351818  0.94781056  1
  C  C415  1  0.45946750  0.43003446  0.50900894  1
  N  N416  1  0.29770863  0.46697801  0.74270087  1
  N  N417  1  0.45498302  0.38882823  0.97145422  1
  C  C418  1  0.25380568  0.49178260  0.65421476  1
  C  C419  1  0.31509527  0.55782788  0.24997324  1
  C  C420  1  0.31209357  0.56436225  0.17868060  1
  C  C421  1  0.30952339  0.61261221  0.16392366  1
  C  C422  1  0.30507491  0.65502694  0.14779398  1
  C  C423  1  0.42621369  0.64202259  0.45171817  1
  N  N424  1  0.31627486  0.52913312  0.14077059  1
  O  O425  1  0.28142210  0.68337016  0.08665159  1
  C  C426  1  0.31140350  0.54600529  0.08509477  1
  H  H427  1  0.31045817  0.69051325  0.17112822  1
  H  H428  1  0.30644954  0.58496533  0.07710001  1
  O  O429  1  0.33477241  0.59053041  0.28238444  1
  H  H430  1  0.46552679  0.61742043  0.44333726  1
  C  C431  1  0.42790191  0.69121054  0.43601454  1
  N  N432  1  0.43592292  0.67480140  0.18745436  1
  C  C433  1  0.43459534  0.65751656  0.08438098  1
  C  C434  1  0.41338264  0.64497438  0.04011103  1
  C  C435  1  0.37872023  0.72404168  0.44886287  1
  C  C436  1  0.32132993  0.71177010  0.47912959  1
  C  C437  1  0.36757148  0.62638195  0.47545130  1
  H  H438  1  0.42916947  0.62997148  0.31854292  1
  H  H439  1  0.38391661  0.54778271  0.34809673  1
  H  H440  1  0.47934312  0.53795652  0.44791840  1
  H  H441  1  0.39358972  0.60877508  0.03073289  1
  O  O442  1  0.29421393  0.51898555  0.26854311  1
  C  C443  1  0.31533130  0.66198339  0.48662648  1
  H  H444  1  0.47242022  0.70295927  0.41615761  1
  C  C445  1  0.46287981  0.67812701  0.13266106  1
  N  N446  1  0.34667773  0.58080805  0.48896486  1
  C  C447  1  0.47306132  0.61149547  0.30259537  1
  C  C448  1  0.31907999  0.50947575  0.04344449  1
  H  H449  1  0.43179958  0.52477450  0.20662724  1
  H  H450  1  0.31123281  0.51351655  0.42098687  1
  H  H451  1  0.27950041  0.73606650  0.49228269  1
  C  C452  1  0.47702160  0.53374435  0.18678876  1
  C  C453  1  0.38675665  0.50882135  0.35607303  1
  O  O454  1  0.49659481  0.72608009  0.10332798  1
  C  C455  1  0.48265054  0.65055252  0.20504187  1
  O  O456  1  0.49985164  0.76432568  0.18939762  1
  O  O457  1  0.25153305  0.98470243  0.23839664  1
  C  C458  1  0.26792553  0.77695834  0.18982163  1
  C  C459  1  0.48174807  0.84775373  0.35375427  1
  C  C460  1  0.40312771  0.97523812  0.00695928  1
  C  C461  1  0.48577905  0.98087581  0.31983577  1
  C  C462  1  0.46869936  0.94057845  0.36178391  1
  C  C463  1  0.48801214  0.89676440  0.33352152  1
  N  N464  1  0.30395068  0.75169924  0.27514732  1
  H  H465  1  0.29041349  0.78612960  0.09605735  1
  C  C466  1  0.44408714  0.88918177  0.01227647  1
  H  H467  1  0.39245147  0.76061350  0.43574734  1
  C  C468  1  0.39829318  0.97515740  0.06916255  1
  C  C469  1  0.43326038  0.88833723  0.07328148  1
  O  O470  1  0.48943354  0.81300663  0.31853446  1
  H  H471  1  0.42339803  0.93633303  0.45120323  1
  O  O472  1  0.47191433  0.84370305  0.40902079  1
  H  H473  1  0.26377259  0.85950619  0.42672022  1
  C  C474  1  0.39087362  0.93168181  0.16447678  1
  N  N475  1  0.38105428  0.97506815  0.17479931  1
  H  H476  1  0.43768737  0.85317938  0.09450085  1
  O  O477  1  0.41356235  0.84833575  0.19550587  1
  H  H478  1  0.27449936  0.97228819  0.36184598  1
  C  C479  1  0.38946357  0.88963075  0.21266934  1
  C  C480  1  0.43580530  0.95951064  0.41118174  1
  C  C481  1  0.40772303  0.92881423  0.10409655  1
  N  N482  1  0.31817341  0.75677984  0.21757176  1
  Cu  Cu483  1  0.44752387  0.80264438  0.24539166  1
  O  O484  1  0.37011956  0.89667937  0.26038402  1
  C  C485  1  0.25487524  0.79071424  0.12932414  1
  C  C486  1  0.29586004  0.56857823  0.77237646  1
  Cu  Cu487  1  0.40673788  0.56106149  0.71262058  1
  N  N488  1  0.39229713  0.60154503  0.64992951  1
  C  C489  1  0.38319805  0.58391107  0.85077158  1
  C  C490  1  0.40700722  0.67256058  0.59413846  1
  C  C491  1  0.42728758  0.64106640  0.64068226  1
  C  C492  1  0.37171305  0.63447465  0.85061290  1
  H  H493  1  0.31361193  0.69254720  0.80522765  1
  C  C494  1  0.32327202  0.65395511  0.81539917  1
  H  H495  1  0.36105871  0.66836058  0.56955413  1
  H  H496  1  0.36227865  0.59152882  0.61679928  1
  C  C497  1  0.35305667  0.55106705  0.80485639  1
  C  C498  1  0.29238615  0.61742611  0.78118320  1
  H  H499  1  0.40107617  0.66186834  0.87447306  1
  C  C500  1  0.44541982  0.71145130  0.58025757  1
  N  N501  1  0.42793673  0.56633068  0.88373704  1
  H  H502  1  0.43395330  0.57659432  0.54059845  1
  H  H503  1  0.27649528  0.61583603  0.89825201  1
  C  C504  1  0.26967097  0.62750120  0.51483422  1
  C  C505  1  0.48642749  0.65182814  0.67252620  1
  C  C506  1  0.44068134  0.69851377  0.94646302  1
  H  H507  1  0.33423930  0.55208253  0.96207599  1
  C  C508  1  0.38941700  0.51078930  0.79654506  1
  N  N509  1  0.28803832  0.58101927  0.51278769  1
  H  H510  1  0.28245773  0.71958490  0.68017010  1
  H  H511  1  0.26478503  0.54858903  0.74059884  1
  C  C512  1  0.27263682  0.74135293  0.95967734  1
  C  C513  1  0.48307371  0.56136478  0.53868997  1
  H  H514  1  0.43137799  0.73664410  0.54338856  1
  C  C515  1  0.44745435  0.74112007  0.91026526  1
  C  C516  1  0.33512880  0.51564786  0.98353292  1
  H  H517  1  0.31525080  0.73957304  0.98669033  1
  N  N518  1  0.48344055  0.58753031  0.73946583  1
  C  C519  1  0.48555199  0.73092057  0.85691342  1
  N  N520  1  0.47745322  0.66719283  0.91490926  1
  Cu  Cu521  1  0.48948869  0.59153828  0.93078307  1
  O  O522  1  0.41222435  0.69354949  0.99591986  1
  H  H523  1  0.26009868  0.80915197  0.66972603  1
  C  C524  1  0.35519320  0.92231814  0.83834364  1
  H  H525  1  0.26842819  0.96761138  0.78168027  1
  H  H526  1  0.37635801  0.99547984  0.81772881  1
  H  H527  1  0.46724248  0.86109821  0.98721581  1
  C  C528  1  0.30011723  0.89672037  0.92989065  1
  H  H529  1  0.28619398  0.87053399  0.96265282  1
  C  C530  1  0.44772471  0.82498556  0.87304986  1
  N  N531  1  0.35784871  0.81978260  0.53159198  1
  C  C532  1  0.30802579  0.98601257  0.89594000  1
  C  C533  1  0.33052330  0.88483977  0.87771190  1
  C  C534  1  0.43603167  0.79189492  0.91752136  1
  O  O535  1  0.45389901  0.95474138  0.67453692  1
  N  N536  1  0.29515633  0.81702911  0.54125950  1
  C  C537  1  0.27033824  0.85946482  0.55830076  1
  H  H538  1  0.43166448  0.93512528  0.93201184  1
  C  C539  1  0.30994971  0.94475933  0.57306368  1
  C  C540  1  0.28370452  0.94756134  0.93702597  1
  H  H541  1  0.38998346  0.91018618  0.80467859  1
  H  H542  1  0.41774045  0.80578999  0.96066098  1
  C  C543  1  0.37710439  0.86493586  0.54541937  1
  C  C544  1  0.44436527  0.87873065  0.54859538  1
  C  C545  1  0.42704057  0.93253669  0.98125636  1
  H  H546  1  0.34669377  0.97228364  0.56905508  1
  C  C547  1  0.27937754  0.75462270  0.90005139  1
  O  O548  1  0.45613736  0.92170215  0.56488553  1
  C  C549  1  0.34934768  0.97103004  0.84909031  1
  C  C550  1  0.45951922  0.92951224  0.72271892  1
  H  H551  1  0.43823932  0.86363823  0.88015360  1
  H  H552  1  0.32875857  0.76065112  0.88387587  1
  H  H553  1  0.34531449  0.84687681  0.86700289  1
  C  C554  1  0.32398911  0.89322562  0.56365372  1
  C  C555  1  0.48315785  0.94993750  0.77967615  1
  O  O556  1  0.45068277  0.88612644  0.72171750  1
  C  C557  1  0.49639284  0.99960731  0.79538118  1
  N  N558  1  0.49764161  0.92113516  0.82536450  1
  C  C559  1  0.49629231  0.76359478  0.80851781  1
  H  H560  1  0.47634195  0.83743658  0.78129759  1
  C  C561  1  0.47346167  0.81011325  0.81784982  1
  O  O562  1  0.48658399  0.85106406  0.52764537  1
  C  C563  1  0.56445664  0.12142162  0.27103756  1
  C  C564  1  0.56558034  0.07930579  0.22662877  1
  H  H565  1  0.61396689  0.15384243  0.34657844  1
  C  C566  1  0.61432196  0.12568420  0.31205221  1
  C  C567  1  0.62400227  0.05101161  0.22433035  1
  C  C568  1  0.58684368  0.15061437  0.44549667  1
  C  C569  1  0.51871009  0.15246987  0.45407069  1
  C  C570  1  0.66436760  0.09208305  0.31049721  1
  C  C571  1  0.63533000  0.18838485  0.43914654  1
  C  C572  1  0.62425134  0.10595780  0.45235630  1
  N  N573  1  0.69209001  0.16708448  0.43361768  1
  N  N574  1  0.68691492  0.11797113  0.44220552  1
  C  C575  1  0.67227727  0.05604047  0.26617235  1
  H  H576  1  0.70380433  0.09319986  0.34260627  1
  N  N577  1  0.54322794  0.03588494  0.09711164  1
  C  C578  1  0.57533947  0.05306937  0.05333952  1
  O  O579  1  0.67912209  0.19283893  0.20230767  1
  H  H580  1  0.71466915  0.03166584  0.26498198  1
  H  H581  1  0.70837597  0.13271758  0.11963824  1
  H  H582  1  0.63325443  0.02174127  0.19043303  1
  C  C583  1  0.59498681  0.06003100  0.46716156  1
  H  H584  1  0.61788054  0.02454563  0.46935942  1
  C  C585  1  0.52989608  0.06663023  0.47956713  1
  O  O586  1  0.53532373  0.20369523  0.33549274  1
  C  C587  1  0.70006909  0.21802494  0.16482378  1
  H  H588  1  0.73222308  0.06770508  0.17863751  1
  C  C589  1  0.62442462  0.23942547  0.43398021  1
  C  C590  1  0.74145635  0.10534957  0.09909615  1
  C  C591  1  0.63433332  0.01958708  0.05294527  1
  H  H592  1  0.50343059  0.03637994  0.49505617  1
  C  C593  1  0.56489775  0.09259102  0.01678818  1
  H  H594  1  0.52033378  0.11247737  0.01956491  1
  C  C595  1  0.68436013  0.02970394  0.01027608  1
  N  N596  1  0.74789186  0.01619531  0.37969596  1
  O  O597  1  0.50411868  0.23749412  0.09394132  1
  H  H598  1  0.50395368  0.05627516  0.29578486  1
  C  C599  1  0.50472928  0.14653148  0.26548834  1
  N  N600  1  0.50992765  0.07888099  0.20275457  1
  H  H601  1  0.73523560  0.01677736  0.01268852  1
  C  C602  1  0.71000704  0.43158439  0.03237791  1
  H  H603  1  0.71275991  0.49234998  0.16073150  1
  N  N604  1  0.66767742  0.47893338  0.48316832  1
  O  O605  1  0.56986491  0.25483477  0.42798992  1
  N  N606  1  0.68975708  0.26778476  0.00864694  1
  O  O607  1  0.59397653  0.31024992  0.06831506  1
  Cu  Cu608  1  0.73065835  0.28098941  0.49468314  1
  C  C609  1  0.52841934  0.49396396  0.01681419  1
  O  O610  1  0.64230101  0.45044156  0.37395786  1
  O  O611  1  0.66504473  0.25657547  0.14619577  1
  Cu  Cu612  1  0.58148945  0.25353911  0.11837693  1
  H  H613  1  0.55242501  0.41879729  0.46301298  1
  C  C614  1  0.61617904  0.49596421  0.45471516  1
  H  H615  1  0.64393270  0.48497560  0.07319222  1
  C  C616  1  0.60505154  0.48309231  0.39300766  1
  C  C617  1  0.72628282  0.46232486  0.12875642  1
  Cu  Cu618  1  0.51311832  0.26528136  0.36278497  1
  Cu  Cu619  1  0.72138417  0.47155183  0.34035623  1
  Cu  Cu620  1  0.73211199  0.29943051  0.06638198  1
  O  O621  1  0.67347858  0.26974706  0.43464333  1
  C  C622  1  0.68791487  0.46135359  0.07787880  1
  C  C623  1  0.58613237  0.30048758  0.01371031  1
  O  O624  1  0.56022960  0.49875689  0.36265865  1
  H  H625  1  0.66788566  0.16797302  0.79020295  1
  N  N626  1  0.67161073  0.10257701  0.67236189  1
  C  C627  1  0.71322148  0.19522765  0.86875898  1
  C  C628  1  0.66269175  0.19198053  0.82889965  1
  N  N629  1  0.65175181  0.19767288  0.63279136  1
  C  C630  1  0.61687949  0.23533144  0.62005017  1
  C  C631  1  0.64350335  0.06384610  0.69077360  1
  C  C632  1  0.66091401  0.05588386  0.75248358  1
  C  C633  1  0.60192326  0.21427738  0.83525277  1
  Cu  Cu634  1  0.68058983  0.13898652  0.60529257  1
  N  N635  1  0.69784324  0.21864405  0.68578350  1
  C  C636  1  0.69933280  0.22661692  0.91694790  1
  N  N637  1  0.71419442  0.12359991  0.72742510  1
  C  C638  1  0.70572013  0.09395839  0.77071439  1
  H  H639  1  0.61423236  0.12917329  0.93863698  1
  H  H640  1  0.56463880  0.21004447  0.80158110  1
  C  C641  1  0.66323374  0.06900588  0.98266396  1
  C  C642  1  0.72645571  0.05036861  0.86220214  1
  C  C643  1  0.58715549  0.24450096  0.88370186  1
  O  O644  1  0.58620840  0.05218359  0.60351003  1
  C  C645  1  0.59648091  0.03780036  0.65191998  1
  C  C646  1  0.57270950  0.23779598  0.57128095  1
  H  H647  1  0.56688733  0.20664555  0.54227337  1
  C  C648  1  0.61589726  0.10342785  0.97698524  1
  H  H649  1  0.55549182  0.03664681  0.93690804  1
  N  N650  1  0.73599771  0.23505966  0.96063303  1
  C  C651  1  0.65351769  0.01467883  0.78983098  1
  H  H652  1  0.55548924  0.11054584  0.88397650  1
  C  C653  1  0.53479044  0.07940767  0.86267511  1
  C  C654  1  0.53694813  0.03573635  0.89174835  1
  C  C655  1  0.63570238  0.24923700  0.92641150  1
  C  C656  1  0.52051113  0.08325949  0.80145229  1
  C  C657  1  0.68331634  0.01183394  0.84601217  1
  H  H658  1  0.52687717  0.12092201  0.78071403  1
  C  C659  1  0.50631854  0.14932324  0.64723744  1
  O  O660  1  0.74247338  0.05531530  0.51580441  1
  C  C661  1  0.73954077  0.08812325  0.82441538  1
  H  H662  1  0.50809642  0.34859384  0.60390026  1
  H  H663  1  0.53785137  0.25550315  0.89276483  1
  C  C664  1  0.56827923  0.41937154  0.55469395  1
  H  H665  1  0.58189560  0.34528949  0.68900818  1
  O  O666  1  0.62442853  0.39634632  0.85226115  1
  C  C667  1  0.56781704  0.43960969  0.66686874  1
  C  C668  1  0.67403907  0.25925927  0.70150150  1
  O  O669  1  0.66787041  0.42522614  0.63221767  1
  Cu  Cu670  1  0.52780249  0.35167926  0.92565566  1
  C  C671  1  0.62963001  0.49596800  0.89214004  1
  H  H672  1  0.53544220  0.49407503  0.96762367  1
  C  C673  1  0.57295370  0.41841445  0.86098127  1
  N  N674  1  0.52498250  0.49713406  0.88250136  1
  C  C675  1  0.70790979  0.28683253  0.75120689  1
  H  H676  1  0.68857832  0.42935846  0.98960620  1
  C  C677  1  0.58298785  0.31614118  0.65574643  1
  Cu  Cu678  1  0.73313626  0.45721654  0.58888473  1
  C  C679  1  0.69323683  0.47943416  0.90280267  1
  H  H680  1  0.70343231  0.44352664  0.89057859  1
  N  N681  1  0.52520475  0.44881758  0.70710576  1
  H  H682  1  0.53406008  0.30491712  0.78500033  1
  C  C683  1  0.57250361  0.46985871  0.87580431  1
  C  C684  1  0.63395140  0.26969091  0.98621196  1
  N  N685  1  0.65995071  0.49171268  0.53971110  1
  C  C686  1  0.53301299  0.27809641  0.56645258  1
  C  C687  1  0.62495918  0.27649597  0.66417897  1
  O  O688  1  0.53452629  0.31172024  0.98862184  1
  O  O689  1  0.52220098  0.39397648  0.85900028  1
  Cu  Cu690  1  0.66817375  0.38709963  0.78143333  1
  H  H691  1  0.61813822  0.40573528  0.54976010  1
  C  C692  1  0.52767242  0.42348775  0.50386575  1
  O  O693  1  0.72658916  0.40595204  0.53089245  1
  Cu  Cu694  1  0.51319740  0.46794400  0.78407534  1
  C  C695  1  0.63441674  0.43316078  0.67882297  1
  C  C696  1  0.54067152  0.31719461  0.60815207  1
  O  O697  1  0.67519345  0.32027764  0.77941050  1
  C  C698  1  0.53850177  0.43315093  0.60940176  1
  O  O699  1  0.66333690  0.43789333  0.72723003  1
  C  C700  1  0.64096028  0.57172008  0.15988853  1
  O  O701  1  0.65169981  0.56394273  0.21031704  1
  C  C702  1  0.58224476  0.55647812  0.12460767  1
  H  H703  1  0.54491885  0.59429498  0.23936053  1
  O  O704  1  0.69290034  0.58964096  0.12686630  1
  C  C705  1  0.67599325  0.69578079  0.41206281  1
  O  O706  1  0.72464872  0.53833410  0.36280268  1
  N  N707  1  0.54705944  0.56266841  0.36976944  1
  H  H708  1  0.71253889  0.70411023  0.37990354  1
  C  C709  1  0.55621997  0.52900338  0.05290732  1
  N  N710  1  0.58793830  0.56566594  0.06675829  1
  H  H711  1  0.67568173  0.58789003  0.08695154  1
  C  C712  1  0.63450774  0.73160150  0.43115180  1
  H  H713  1  0.70117490  0.61784573  0.41653711  1
  C  C714  1  0.67196435  0.64808534  0.43759854  1
  C  C715  1  0.50430517  0.61734535  0.24799940  1
  C  C716  1  0.51444278  0.58353189  0.33900324  1
  C  C717  1  0.52475720  0.54342138  0.16038630  1
  H  H718  1  0.53270334  0.73948049  0.01085659  1
  C  C719  1  0.58370091  0.71458297  0.47210570  1
  C  C720  1  0.62756031  0.63538238  0.48092996  1
  H  H721  1  0.62586157  0.59687984  0.49404069  1
  C  C722  1  0.50846482  0.54243714  0.48632143  1
  C  C723  1  0.57276175  0.52525638  0.48954145  1
  H  H724  1  0.74152565  0.87130442  0.32434831  1
  O  O725  1  0.64586037  0.85813477  0.35420455  1
  C  C726  1  0.53889002  0.80559545  0.10946421  1
  C  C727  1  0.55488191  0.77528176  0.00221990  1
  H  H728  1  0.72093920  0.86117839  0.17831304  1
  N  N729  1  0.55216331  0.75482995  0.48454403  1
  O  O730  1  0.71144251  0.79814524  0.34467600  1
  N  N731  1  0.73258835  0.96930607  0.37120001  1
  C  C732  1  0.69293586  0.94830754  0.09837306  1
  N  N733  1  0.58012823  0.80016979  0.44189196  1
  O  O734  1  0.69647836  0.91680601  0.14327467  1
  Cu  Cu735  1  0.52797370  0.87316740  0.21008144  1
  O  O736  1  0.60283221  0.89169446  0.49998236  1
  C  C737  1  0.51019193  0.76266887  0.13402818  1
  C  C738  1  0.58870136  0.85902007  0.04289676  1
  N  N739  1  0.57401497  0.88349499  0.08886504  1
  C  C740  1  0.62265776  0.78354800  0.41479879  1
  N  N741  1  0.50313306  0.96218910  0.26873895  1
  C  C742  1  0.66577801  0.81762781  0.36726635  1
  Cu  Cu743  1  0.53181439  0.97141794  0.19385340  1
  N  N744  1  0.58468425  0.99176749  0.12954758  1
  N  N745  1  0.54401153  0.84429046  0.13708508  1
  Cu  Cu746  1  0.53489927  0.86613741  0.45667259  1
  C  C747  1  0.63770111  0.98554478  0.09807286  1
  O  O748  1  0.73234358  0.94694162  0.06092922  1
  N  N749  1  0.50237294  0.90504573  0.27942235  1
  C  C750  1  0.56172291  0.80908010  0.04857012  1
  H  H751  1  0.67747188  0.80962073  0.49009418  1
  H  H752  1  0.64892222  0.61597509  0.94652078  1
  O  O753  1  0.60158228  0.67309779  0.75466348  1
  C  C754  1  0.57175347  0.63752725  0.76236897  1
  O  O755  1  0.58195646  0.60446237  0.79920175  1
  H  H756  1  0.56290792  0.70666659  0.68637141  1
  N  N757  1  0.55307065  0.55077357  0.90680457  1
  C  C758  1  0.66006975  0.57898684  0.93477029  1
  H  H759  1  0.60914615  0.54923562  0.63988140  1
  C  C760  1  0.58307772  0.54679553  0.59795092  1
  C  C761  1  0.61383675  0.54717883  0.90879713  1
  C  C762  1  0.60834882  0.52313045  0.54593894  1
  H  H763  1  0.68443348  0.61351743  0.84191364  1
  C  C764  1  0.71004239  0.64485035  0.85861169  1
  C  C765  1  0.67413953  0.68536300  0.87337595  1
  H  H766  1  0.71572797  0.66546529  0.75325854  1
  H  H767  1  0.61999022  0.68476617  0.87152707  1
  C  C768  1  0.52092858  0.56436918  0.59104062  1
  N  N769  1  0.50084694  0.68381579  0.86420218  1
  Cu  Cu770  1  0.52065523  0.55600304  0.80939733  1
  H  H771  1  0.54537776  0.65874629  0.53298169  1
  C  C772  1  0.50020340  0.72365335  0.61246624  1
  C  C773  1  0.52147935  0.69391118  0.65903158  1
  C  C774  1  0.50859594  0.62315569  0.72348320  1
  C  C775  1  0.70702302  0.72481007  0.90150038  1
  H  H776  1  0.50252809  0.58353541  0.63178327  1
  C  C777  1  0.72162427  0.56132303  0.94023162  1
  C  C778  1  0.73956178  0.51330079  0.92238110  1
  C  C779  1  0.57971252  0.66825685  0.50060252  1
  H  H780  1  0.51930949  0.75479136  0.76684182  1
  C  C781  1  0.74274645  0.78591736  0.65029794  1
  H  H782  1  0.62126508  0.91553940  0.97111710  1
  C  C783  1  0.69892631  0.80586964  0.53361045  1
  C  C784  1  0.68092599  0.83915145  0.58045887  1
  N  N785  1  0.51721589  0.94759905  0.87146907  1
  C  C786  1  0.56965776  0.79398715  0.94555776  1
  H  H787  1  0.51025228  0.76454659  0.50612227  1
  C  C788  1  0.70213285  0.82809861  0.64073104  1
  N  N789  1  0.65109854  0.89671624  0.64929524  1
  C  C790  1  0.74022187  0.81743550  0.82181907  1
  H  H791  1  0.68163297  0.75714584  0.91623616  1
  O  O792  1  0.57877727  0.94895872  0.56525832  1
  O  O793  1  0.56975303  0.99667480  0.66710836  1
  C  C794  1  0.51849500  0.99456797  0.85793201  1
  N  N795  1  0.68360333  0.86388070  0.67988878  1
  C  C796  1  0.73949414  0.76653015  0.54541558  1
  C  C797  1  0.64710060  0.88373569  0.59180190  1
  H  H798  1  0.74794257  0.92902467  0.70539886  1
  C  C799  1  0.60836917  0.90995532  0.55109317  1
  H  H800  1  0.52435768  0.75967603  0.60331793  1
  Cu  Cu801  1  0.51398115  0.95378114  0.61959776  1
  C  C802  1  0.59286381  0.84129332  0.94581164  1
  H  H803  1  0.55928060  0.77545833  0.90447796  1
  O  O804  1  0.69132190  0.82393221  0.84402110  1
  H  H805  1  0.67692390  0.98219361  0.87772380  1
  C  C806  1  0.60932754  0.87726767  0.98177862  1
  H  H807  1  0.61848454  0.98493476  0.78049757  1
  Cu  Cu808  1  0.78148943  0.18723777  0.40305688  1
  C  C809  1  0.93520281  0.13302404  0.13961308  1
  C  C810  1  0.81979457  0.07629932  0.33850125  1
  C  C811  1  0.88876176  0.12036168  0.18507753  1
  H  H812  1  0.89237227  0.09006333  0.21648706  1
  O  O813  1  0.79761738  0.10449038  0.38242243  1
  N  N814  1  0.92201113  0.15843525  0.40610544  1
  Cu  Cu815  1  0.88578134  0.11133124  0.45503198  1
  C  C816  1  0.82216403  0.18949593  0.14841005  1
  Cu  Cu817  1  0.77019077  0.07872645  0.44546330  1
  C  C818  1  0.92992198  0.17371387  0.10232929  1
  C  C819  1  0.83290376  0.14939565  0.18566187  1
  O  O820  1  0.85498248  0.08977915  0.30177103  1
  N  N821  1  0.86585012  0.19836240  0.38034621  1
  C  C822  1  0.79313128  0.02590677  0.34146003  1
  H  H823  1  0.96675956  0.17914877  0.06647080  1
  N  N824  1  0.95494971  0.07035595  0.45828369  1
  C  C825  1  0.83544040  0.03546380  0.06670747  1
  C  C826  1  0.87363523  0.20210330  0.10519271  1
  H  H827  1  0.79819762  0.14074513  0.22148499  1
  C  C828  1  0.97441133  0.17159569  0.38187765  1
  C  C829  1  0.96088978  0.21508047  0.34533365  1
  O  O830  1  0.81479096  0.17859288  0.48154113  1
  C  C831  1  0.82507818  0.08147365  0.03368650  1
  H  H832  1  0.98205941  0.11792032  0.13474063  1
  C  C833  1  0.89315684  0.22827923  0.35005648  1
  C  C834  1  0.79904063  0.02667663  0.11990743  1
  H  H835  1  0.89958180  0.01177291  0.36860498  1
  C  C836  1  0.94817456  0.00722862  0.38234203  1
  N  N837  1  0.85182053  0.24228056  0.08134483  1
  C  C838  1  0.76268736  0.21605794  0.13737064  1
  N  N839  1  0.87943054  0.00773833  0.03964618  1
  H  H840  1  0.76596129  0.14899626  0.02221667  1
  C  C841  1  0.97513195  0.03326064  0.42957276  1
  H  H842  1  0.97047613  0.24729725  0.48639991  1
  C  C843  1  0.77669263  0.11676248  0.04876257  1
  N  N844  1  0.77636062  0.24863894  0.09815817  1
  H  H845  1  0.88570654  0.00223566  0.23368616  1
  C  C846  1  0.75873624  0.06454145  0.13690419  1
  N  N847  1  0.78371486  0.36441191  0.01653414  1
  C  C848  1  0.82276250  0.38325605  0.47834613  1
  C  C849  1  0.76258802  0.40067510  0.04535749  1
  N  N850  1  0.82677245  0.42376594  0.45238870  1
  C  C851  1  0.78270092  0.43727786  0.14233285  1
  O  O852  1  0.76522403  0.46603854  0.27580305  1
  Cu  Cu853  1  0.78334875  0.47964579  0.44141103  1
  C  C854  1  0.99556778  0.45894035  0.15384982  1
  N  N855  1  0.84368153  0.34111369  0.06054387  1
  C  C856  1  0.86813851  0.48908221  0.23310073  1
  Cu  Cu857  1  0.86495781  0.36463292  0.26863918  1
  C  C858  1  0.89888475  0.30600619  0.48610055  1
  C  C859  1  0.82297138  0.45864854  0.27406581  1
  O  O860  1  0.89154639  0.30137166  0.29190486  1
  C  C861  1  0.98278893  0.35658267  0.40930389  1
  Cu  Cu862  1  0.94147720  0.48200945  0.48782610  1
  O  O863  1  0.80645936  0.28071440  0.34129560  1
  H  H864  1  0.98650150  0.44589801  0.05437967  1
  C  C865  1  0.95659611  0.45963059  0.09114075  1
  N  N866  1  0.89556786  0.41812943  0.41137016  1
  C  C867  1  0.85782426  0.27137985  0.32382608  1
  C  C868  1  0.85306252  0.36624657  0.10547652  1
  C  C869  1  0.99419199  0.31106324  0.42984505  1
  C  C870  1  0.87766877  0.35229993  0.46562021  1
  N  N871  1  0.92539887  0.46949825  0.23120173  1
  C  C872  1  0.80352077  0.40155548  0.10235300  1
  C  C873  1  0.96557194  0.49390085  0.19837744  1
  O  O874  1  0.94259423  0.32091727  0.13875414  1
  Cu  Cu875  1  0.91823989  0.47005244  0.37074218  1
  O  O876  1  0.90784871  0.37638193  0.19794936  1
  O  O877  1  0.84918638  0.42488265  0.29945397  1
  H  H878  1  0.91364984  0.43705785  0.09468250  1
  Cu  Cu879  1  0.88800338  0.28787961  0.03067374  1
  C  C880  1  0.92123357  0.37838178  0.42481395  1
  H  H881  1  0.81131559  0.44707731  0.18335788  1
  C  C882  1  0.90637145  0.35274217  0.14824550  1
  C  C883  1  0.95621444  0.28281851  0.46947364  1
  C  C884  1  0.87695268  0.11022061  0.75072613  1
  C  C885  1  0.87421551  0.06002648  0.77392948  1
  C  C886  1  0.87069546  0.20836780  0.56578048  1
  N  N887  1  0.92026058  0.17938438  0.55822031  1
  O  O888  1  0.92161958  0.13904982  0.77445795  1
  C  C889  1  0.84724576  0.01252456  0.76781662  1
  H  H890  1  0.95753861  0.18496803  0.95214342  1
  N  N891  1  0.91436669  0.05952861  0.81919430  1
  O  O892  1  0.84493192  0.12213047  0.70980737  1
  Cu  Cu893  1  0.81500070  0.21936943  0.99117335  1
  C  C894  1  0.89023135  0.11025080  0.94327114  1
  O  O895  1  0.94671266  0.10704870  0.91316293  1
  C  C896  1  0.96764729  0.21720565  0.92447527  1
  N  N897  1  0.96529802  0.19076609  0.59826160  1
  N  N898  1  0.91724602  0.01275038  0.84394993  1
  Cu  Cu899  1  0.96725103  0.01717965  0.91590779  1
  O  O900  1  0.86086628  0.14614360  0.93437370  1
  C  C901  1  0.81473896  0.20543149  0.52692351  1
  C  C902  1  0.94431707  0.22630020  0.63493587  1
  C  C903  1  0.77936904  0.05802601  0.56199361  1
  N  N904  1  0.86165114  0.01713661  0.60965564  1
  C  C905  1  0.82551046  0.01795187  0.56166295  1
  Cu  Cu906  1  0.96803547  0.11888527  0.84022121  1
  O  O907  1  0.77656022  0.09034022  0.59711606  1
  C  C908  1  0.88054203  0.24307242  0.61312568  1
  H  H909  1  0.77737663  0.11313405  0.83498171  1
  C  C910  1  0.87095483  0.07388293  0.98861793  1
  H  H911  1  0.94340376  0.00494176  0.69194863  1
  O  O912  1  0.77288286  0.23440647  0.54112164  1
  Cu  Cu913  1  0.76114961  0.17543558  0.70520266  1
  H  H914  1  0.78190757  0.01494571  0.69386231  1
  C  C915  1  0.97299139  0.24922605  0.68411357  1
  H  H916  1  0.75267301  0.04411604  0.90494263  1
  H  H917  1  0.76037445  0.17934330  0.85960009  1
  N  N918  1  0.90465841  0.03213663  0.99402320  1
  Cu  Cu919  1  0.75764347  0.32175741  0.95966530  1
  C  C920  1  0.91684472  0.25263429  0.91622768  1
  N  N921  1  0.86016501  0.25496147  0.93884483  1
  O  O922  1  0.76314228  0.33229557  0.53801030  1
  O  O923  1  0.75899595  0.27463209  0.76829558  1
  C  C924  1  0.87859293  0.30357463  0.68853471  1
  C  C925  1  0.87143774  0.38318665  0.87348916  1
  H  H926  1  0.93228079  0.33948565  0.58134916  1
  C  C927  1  0.87401797  0.33028112  0.88940507  1
  C  C928  1  0.94394443  0.37663299  0.59962450  1
  C  C929  1  0.99059460  0.30399957  0.86376294  1
  O  O930  1  0.82068593  0.41139386  0.90303729  1
  C  C931  1  0.93961584  0.28784238  0.71169545  1
  H  H932  1  0.87114056  0.28513953  0.51810666  1
  C  C933  1  0.84641756  0.28037458  0.64075262  1
  C  C934  1  0.90293690  0.41388603  0.58337890  1
  C  C935  1  0.76806835  0.37428609  0.51773490  1
  H  H936  1  0.86320664  0.40764004  0.55150187  1
  O  O937  1  0.90433995  0.40240855  0.83871308  1
  H  H938  1  0.82006419  0.39047252  0.93946037  1
  C  C939  1  0.97812472  0.46286771  0.64657790  1
  H  H940  1  0.80089736  0.29451081  0.62468229  1
  C  C941  1  0.92666821  0.29629852  0.87956326  1
  N  N942  1  0.83494331  0.31095297  0.92445929  1
  O  O943  1  0.79671306  0.48801526  0.54892233  1
  H  H944  1  0.95819340  0.30524675  0.75200537  1
  H  H945  1  0.85437005  0.33233167  0.71395118  1
  C  C946  1  0.91950033  0.46032286  0.60870063  1
  O  O947  1  0.98916088  0.38025919  0.99068078  1
  C  C948  1  0.88036497  0.64642676  0.12739714  1
  C  C949  1  0.87539684  0.61368867  0.17738006  1
  C  C950  1  0.88694111  0.59193067  0.37983534  1
  H  H951  1  0.84654573  0.63962801  0.08949620  1
  C  C952  1  0.82787785  0.57418024  0.18523253  1
  C  C953  1  0.83245881  0.56145765  0.37910255  1
  C  C954  1  0.90690172  0.63054087  0.34054153  1
  N  N955  1  0.91102819  0.53322187  0.44708778  1
  N  N956  1  0.84258078  0.52502430  0.41406514  1
  C  C957  1  0.93578625  0.57228630  0.42222841  1
  H  H958  1  0.87875738  0.64550408  0.30615731  1
  H  H959  1  0.77561981  0.57690997  0.17871406  1
  H  H960  1  0.91616786  0.66205806  0.43344012  1
  C  C961  1  0.92280182  0.61706198  0.22332387  1
  C  C962  1  0.84734316  0.53140283  0.20926590  1
  C  C963  1  0.96909017  0.64393183  0.35297880  1
  C  C964  1  0.93349963  0.67607380  0.12414066  1
  C  C965  1  0.94201309  0.70334128  0.06494164  1
  N  N966  1  0.92734095  0.54970163  0.08052954  1
  C  C967  1  0.90430201  0.69906374  0.45192704  1
  H  H968  1  0.92866369  0.59235406  0.26003549  1
  H  H969  1  0.93991652  0.52958739  0.18279839  1
  C  C970  1  0.87978902  0.72107075  0.03414072  1
  O  O971  1  0.82901333  0.70870280  0.05194782  1
  C  C972  1  0.97826615  0.68216994  0.17283402  1
  N  N973  1  0.99195446  0.71009405  0.04384498  1
  C  C974  1  0.97257399  0.64919951  0.22290334  1
  C  C975  1  0.93963941  0.50999706  0.08608684  1
  C  C976  1  0.77094342  0.56766739  0.34678589  1
  O  O977  1  0.76085655  0.60049496  0.31256734  1
  C  C978  1  0.89884284  0.74356620  0.41628482  1
  Cu  Cu979  1  0.98861933  0.60141518  0.08479339  1
  C  C980  1  0.99655329  0.59214148  0.43159117  1
  O  O981  1  0.99231559  0.91803939  0.19638717  1
  H  H982  1  0.96531202  0.95003967  0.32195203  1
  N  N983  1  0.86935500  0.84417661  0.03457282  1
  H  H984  1  0.88836092  0.91627386  0.20214040  1
  C  C985  1  0.81978854  0.89049348  0.26366015  1
  C  C986  1  0.82699980  0.94929853  0.48007621  1
  Cu  Cu987  1  0.93534349  0.83871971  0.28548628  1
  Cu  Cu988  1  0.94778793  0.80067000  0.02004015  1
  O  O989  1  0.88662164  0.91435243  0.38643753  1
  C  C990  1  0.88504402  0.79219506  0.44805482  1
  H  H991  1  0.79450994  0.89163560  0.03680582  1
  H  H992  1  0.95882405  0.94827305  0.47334160  1
  N  N993  1  0.91534082  0.75310614  0.36095487  1
  C  C994  1  0.81567811  0.98604971  0.30655765  1
  O  O995  1  0.90690826  0.82050292  0.18293984  1
  Cu  Cu996  1  0.99491065  0.98600957  0.02487486  1
  O  O997  1  0.85046673  0.89341056  0.47516254  1
  N  N998  1  0.91256228  0.81397209  0.35636239  1
  C  C999  1  0.80263795  0.86444242  0.11814124  1
  C  C1000  1  0.77099578  0.94796476  0.33265129  1
  C  C1001  1  0.85917974  0.84769282  0.09405103  1
  C  C1002  1  0.82404384  0.86769290  0.00596428  1
  C  C1003  1  0.87758471  0.88314036  0.42274637  1
  C  C1004  1  0.91149120  0.82605314  0.13089635  1
  C  C1005  1  0.77502161  0.89970689  0.30937624  1
  H  H1006  1  0.81278091  0.95036179  0.43170490  1
  C  C1007  1  0.89295406  0.83025389  0.40582853  1
  C  C1008  1  0.85786177  0.92777324  0.23964383  1
  H  H1009  1  0.81519390  0.85402915  0.24789592  1
  O  O1010  1  0.96176780  0.81176220  0.10121444  1
  C  C1011  1  0.85517661  0.97628825  0.25769398  1
  H  H1012  1  0.98305245  0.75380272  0.16712709  1
  H  H1013  1  0.80729306  0.99425331  0.15033607  1
  C  C1014  1  0.75245896  0.87666237  0.14207142  1
  H  H1015  1  0.98861230  0.86961612  0.43521129  1
  C  C1016  1  0.98298525  0.97080289  0.35801652  1
  C  C1017  1  0.83522565  0.57061324  0.80504030  1
  O  O1018  1  0.89386978  0.55999778  0.78374599  1
  H  H1019  1  0.86778320  0.61668433  0.63495213  1
  C  C1020  1  0.85052594  0.64518363  0.66769142  1
  C  C1021  1  0.88239517  0.68961542  0.68183967  1
  C  C1022  1  0.94288050  0.70893141  0.66373412  1
  Cu  Cu1023  1  0.96310617  0.59642921  0.80810655  1
  C  C1024  1  0.79312268  0.63843118  0.69647438  1
  C  C1025  1  0.85486102  0.72541101  0.72479835  1
  C  C1026  1  0.79188155  0.71690811  0.74727029  1
  H  H1027  1  0.76290153  0.58133910  0.95910818  1
  O  O1028  1  0.80818351  0.56094754  0.58403848  1
  N  N1029  1  0.93136537  0.53474419  0.64126536  1
  H  H1030  1  0.88406028  0.67455849  0.53773750  1
  O  O1031  1  0.92091104  0.56885960  0.95179010  1
  C  C1032  1  0.83159103  0.61796052  0.83707256  1
  C  C1033  1  0.83067839  0.52185850  0.57894144  1
  N  N1034  1  0.88654180  0.64201534  0.84651168  1
  N  N1035  1  0.87328783  0.68415277  0.87325270  1
  C  C1036  1  0.81099610  0.68900897  0.88442013  1
  C  C1037  1  0.97222008  0.57224237  0.92957123  1
  O  O1038  1  0.98186566  0.55868098  0.87502468  1
  O  O1039  1  0.79109502  0.54450085  0.79996265  1
  C  C1040  1  0.77866987  0.64460285  0.85892336  1
  Cu  Cu1041  1  0.97898266  0.73920674  0.85613827  1
  C  C1042  1  0.88626496  0.70708730  0.50898992  1
  N  N1043  1  0.97911299  0.50935324  0.66353088  1
  H  H1044  1  0.76717084  0.74775637  0.77007442  1
  H  H1045  1  0.78718549  0.72062042  0.61480937  1
  H  H1046  1  0.76754013  0.60307414  0.69072831  1
  C  C1047  1  0.76299365  0.67345328  0.73211546  1
  O  O1048  1  0.98290789  0.65422217  0.59382915  1
  C  C1049  1  0.77304115  0.72691810  0.90837614  1
  H  H1050  1  0.79052776  0.50235526  0.93216155  1
  N  N1051  1  0.95216160  0.74997382  0.68950829  1
  C  C1052  1  0.98996891  0.69219012  0.62010310  1
  H  H1053  1  0.75554409  0.73932236  0.51103554  1
  C  C1054  1  0.89123581  0.50702312  0.60746420  1
  O  O1055  1  0.88845301  0.75423942  0.99530943  1
  H  H1056  1  0.78897153  0.88104976  0.79028768  1
  C  C1057  1  0.76260775  0.75525820  0.60357191  1
  H  H1058  1  0.86345228  0.75131069  0.58714221  1
  C  C1059  1  0.82342282  0.86345103  0.94563473  1
  C  C1060  1  0.87118053  0.75022438  0.53989714  1
  H  H1061  1  0.78668185  0.88233734  0.92033111  1
  H  H1062  1  0.86607484  0.94600750  0.59636425  1
  H  H1063  1  0.85686418  0.82899693  0.52924050  1
  C  C1064  1  0.82848031  0.97978758  0.51963719  1
  C  C1065  1  0.87467969  0.98261220  0.81654758  1
  C  C1066  1  0.94122368  0.92626609  0.69187069  1
  C  C1067  1  0.87279457  0.79426636  0.50915308  1
  H  H1068  1  0.79334161  0.75889960  0.93180251  1
  C  C1069  1  0.88545600  0.97581827  0.62129598  1
  C  C1070  1  0.92436028  0.97182229  0.67147135  1
  N  N1071  1  0.97327138  0.84638099  0.73759011  1
  N  N1072  1  0.96756734  0.80634018  0.85741063  1
  C  C1073  1  0.78309218  0.94503666  0.73498969  1
  O  O1074  1  0.78994019  0.81220398  0.79866427  1
  C  C1075  1  0.80776595  0.91657600  0.78232511  1
  C  C1076  1  0.87615754  0.84336463  0.91464973  1
  C  C1077  1  0.95751791  0.88738073  0.71405763  1
  C  C1078  1  0.85469377  0.93382998  0.82136331  1
  N  N1079  1  0.89423192  0.76153951  0.73563810  1
  C  C1080  1  0.92124183  0.82531680  0.88674277  1
  H  H1081  1  0.87143519  0.90895651  0.85788159  1
  Cu  Cu1082  1  0.91070774  0.81395358  0.78218551  1
  H  H1083  1  0.76240463  0.77963731  0.69549995  1
  H  H1084  1  0.98944890  0.98085212  0.57227942  1
  C  C1085  1  0.99976037  0.94267911  0.55799509  1
  C  C1086  1  0.80149735  0.99274050  0.72787148  1
  C  C1087  1  0.98930686  0.92697741  0.50095601  1
