# generated using pymatgen
data_CuH10(C9O2)2
_symmetry_space_group_name_H-M   'P 1'
_cell_length_a   26.22171555
_cell_length_b   14.47331199
_cell_length_c   27.63783634
_cell_angle_alpha   90.00000000
_cell_angle_beta   90.00000000
_cell_angle_gamma   90.00000000
_symmetry_Int_Tables_number   1
_chemical_formula_structural   CuH10(C9O2)2
_chemical_formula_sum   'Cu24 H240 C432 O96'
_cell_volume   10488.97539878
_cell_formula_units_Z   24
loop_
 _symmetry_equiv_pos_site_id
 _symmetry_equiv_pos_as_xyz
  1  'x, y, z'
loop_
 _atom_site_type_symbol
 _atom_site_label
 _atom_site_symmetry_multiplicity
 _atom_site_fract_x
 _atom_site_fract_y
 _atom_site_fract_z
 _atom_site_occupancy
  C  C0  1  0.09424043  0.29440784  0.07865977  1
  C  C1  1  0.14326723  0.33438297  0.10370265  1
  O  O2  1  0.05731620  0.27356520  0.10671146  1
  O  O3  1  0.09375594  0.29193078  0.03519250  1
  C  C4  1  0.18266568  0.36253974  0.07402579  1
  C  C5  1  0.14425575  0.33684915  0.15357699  1
  H  H6  1  0.11425997  0.31092972  0.17785195  1
  C  C7  1  0.18946031  0.36571261  0.17609955  1
  C  C8  1  0.20174846  0.06858800  0.10921008  1
  H  H9  1  0.17848525  0.36226081  0.03451631  1
  C  C10  1  0.22622529  0.40044188  0.09592340  1
  C  C11  1  0.15881958  0.12856318  0.10213199  1
  H  H12  1  0.15514304  0.19639114  0.11828989  1
  C  C13  1  0.11816850  0.09426319  0.07466490  1
  H  H14  1  0.08220029  0.13576719  0.07028450  1
  C  C15  1  0.22819234  0.40934805  0.14740383  1
  O  O16  1  0.19812678  0.14464651  0.21539990  1
  H  H17  1  0.19328000  0.35756856  0.21509144  1
  Cu  Cu18  1  0.01320776  0.34054236  0.14789166  1
  O  O19  1  0.02931411  0.48201452  0.10011044  1
  C  C20  1  0.23831726  0.10843296  0.19562256  1
  C  C21  1  0.24392382  0.08383746  0.14506545  1
  H  H22  1  0.24055713  0.39882536  0.24332363  1
  O  O23  1  0.03937519  0.01293696  0.02007254  1
  C  C24  1  0.12172127  0.00522108  0.05336826  1
  H  H25  1  0.25788635  0.41925978  0.07403947  1
  C  C26  1  0.27165423  0.45033223  0.17670288  1
  H  H27  1  0.28810764  0.06491130  0.07858619  1
  H  H28  1  0.35600519  0.04952115  0.04918718  1
  C  C29  1  0.31175466  0.49597532  0.15126249  1
  C  C30  1  0.43732820  0.09025868  0.05154346  1
  C  C31  1  0.48053454  0.11369677  0.13155112  1
  H  H32  1  0.44060410  0.08932655  0.01148722  1
  C  C33  1  0.48043991  0.10617995  0.08021267  1
  H  H34  1  0.43068554  0.09614138  0.19259118  1
  C  C35  1  0.39074202  0.06658350  0.07211985  1
  C  C36  1  0.27118712  0.43491097  0.22602875  1
  C  C37  1  0.38869313  0.07605166  0.12228740  1
  C  C38  1  0.33188325  0.06693652  0.19382995  1
  H  H39  1  0.36980233  0.28507220  0.02112227  1
  O  O40  1  0.45291850  0.35476785  0.04427057  1
  C  C41  1  0.33600946  0.07021059  0.14287484  1
  H  H42  1  0.36673246  0.05086004  0.21502067  1
  C  C43  1  0.28947779  0.06618594  0.11838123  1
  O  O44  1  0.28920275  0.05094898  0.01151890  1
  C  C45  1  0.28716413  0.08784668  0.21755931  1
  C  C46  1  0.43291326  0.09811081  0.15221763  1
  C  C47  1  0.45559005  0.36884029  0.00088289  1
  C  C48  1  0.15697935  0.22933335  0.34325285  1
  C  C49  1  0.15879946  0.18191882  0.29828071  1
  H  H50  1  0.12476432  0.22163735  0.36855533  1
  C  C51  1  0.16912470  0.36919203  0.43475168  1
  H  H52  1  0.13678914  0.39598223  0.41057478  1
  H  H53  1  0.12508406  0.14103363  0.28384119  1
  C  C54  1  0.20536085  0.30921086  0.41376403  1
  C  C55  1  0.20230164  0.27349098  0.36008807  1
  H  H56  1  0.01687284  0.14452878  0.28095758  1
  H  H57  1  0.07232196  0.41203348  0.47468189  1
  C  C58  1  0.20061926  0.18595636  0.26594596  1
  C  C59  1  0.17468620  0.40684770  0.48195201  1
  O  O60  1  0.01845739  0.20207405  0.36524552  1
  H  H61  1  0.22237746  0.03648568  0.27250301  1
  H  H62  1  0.02837421  0.21248754  0.39914216  1
  C  C63  1  0.24449330  0.23495663  0.28228492  1
  H  H64  1  0.21744084  0.03937657  0.36483384  1
  C  C65  1  0.24538191  0.28197204  0.32839219  1
  O  O66  1  0.24717093  0.07185593  0.44131984  1
  C  C67  1  0.08722493  0.48057193  0.48471957  1
  C  C68  1  0.24840570  0.27827543  0.44092738  1
  O  O69  1  0.00310812  0.40120602  0.26656009  1
  C  C70  1  0.13999426  0.48787706  0.49531988  1
  H  H71  1  0.34921560  0.31971928  0.25918347  1
  C  C72  1  0.25411456  0.04975201  0.34543988  1
  C  C73  1  0.25559226  0.04853850  0.29487924  1
  C  C74  1  0.25199546  0.31119551  0.49078025  1
  H  H75  1  0.27798310  0.32575136  0.34223078  1
  H  H76  1  0.27615042  0.23370261  0.42546561  1
  O  O77  1  0.42780341  0.25299366  0.40797678  1
  O  O78  1  0.49059125  0.12556345  0.37977803  1
  C  C79  1  0.37784617  0.37034784  0.37768533  1
  H  H80  1  0.37579609  0.12465211  0.27619011  1
  C  C81  1  0.41042071  0.33307854  0.41372801  1
  H  H82  1  0.34277748  0.28387820  0.46267193  1
  O  O83  1  0.32927886  0.10700290  0.44918250  1
  C  C84  1  0.29757634  0.07290463  0.37136204  1
  H  H85  1  0.39707983  0.25465731  0.33303774  1
  C  C86  1  0.29069028  0.08472677  0.42290598  1
  C  C87  1  0.32673598  0.43974085  0.30158456  1
  C  C88  1  0.34489636  0.10042274  0.29948391  1
  C  C89  1  0.35353755  0.45544404  0.38608940  1
  H  H90  1  0.38138722  0.09862693  0.37187191  1
  C  C91  1  0.34752933  0.35104671  0.29578484  1
  O  O92  1  0.47164069  0.15794010  0.30156726  1
  C  C93  1  0.34669585  0.08494286  0.34937856  1
  C  C94  1  0.37360788  0.31702948  0.33511312  1
  C  C95  1  0.30083468  0.08170441  0.27117026  1
  Cu  Cu96  1  0.48115941  0.19610252  0.43780930  1
  O  O97  1  0.42585536  0.38212503  0.44890306  1
  C  C98  1  0.32375260  0.48583051  0.34725253  1
  H  H99  1  0.35686275  0.48957924  0.42211129  1
  C  C100  1  0.31097210  0.48040716  0.25282889  1
  H  H101  1  0.27832917  0.22819194  0.26009065  1
  C  C102  1  0.12220796  0.34230693  0.63998667  1
  C  C103  1  0.20848234  0.41340681  0.67919426  1
  C  C104  1  0.14900896  0.28566978  0.67092037  1
  H  H105  1  0.20536190  0.05768553  0.65343701  1
  C  C106  1  0.22665541  0.10880391  0.72428705  1
  C  C107  1  0.23426876  0.08549935  0.67625832  1
  C  C108  1  0.14002914  0.42904917  0.62275770  1
  C  C109  1  0.07354964  0.31468122  0.61515841  1
  C  C110  1  0.19465063  0.32085914  0.68992389  1
  O  O111  1  0.06081255  0.23570945  0.61453974  1
  H  H112  1  0.22360460  0.40546311  0.54619011  1
  C  C113  1  0.18494461  0.46451493  0.64073841  1
  O  O114  1  0.04840250  0.38311250  0.59462495  1
  Cu  Cu115  1  0.24071002  0.06653810  0.50989964  1
  H  H116  1  0.13503982  0.21924784  0.68197775  1
  O  O117  1  0.24422620  0.06225034  0.57796008  1
  C  C118  1  0.21775684  0.37785895  0.51004255  1
  H  H119  1  0.04494617  0.46450614  0.68028620  1
  H  H120  1  0.21783245  0.28029638  0.71683086  1
  H  H121  1  0.12109860  0.46536190  0.59254215  1
  H  H122  1  0.19030032  0.09138611  0.74314683  1
  H  H123  1  0.35442957  0.16023552  0.74713060  1
  H  H124  1  0.25385043  0.26902316  0.60053572  1
  H  H125  1  0.49373767  0.36884776  0.55045625  1
  H  H126  1  0.42073843  0.25485555  0.51220987  1
  Cu  Cu127  1  0.33455927  0.08924520  0.51689782  1
  Cu  Cu128  1  0.48390443  0.12500292  0.67469173  1
  H  H129  1  0.28674619  0.44472718  0.62497359  1
  C  C130  1  0.28972047  0.27937779  0.57947306  1
  C  C131  1  0.34111199  0.28009788  0.50224810  1
  C  C132  1  0.43301917  0.22585552  0.60722111  1
  O  O133  1  0.44158556  0.02511258  0.69006363  1
  C  C134  1  0.29350046  0.28607755  0.52814476  1
  O  O135  1  0.47317047  0.22644652  0.58542747  1
  O  O136  1  0.32775073  0.06753030  0.57959613  1
  C  C137  1  0.38526104  0.26581484  0.52966130  1
  C  C138  1  0.33754463  0.26772239  0.60193609  1
  C  C139  1  0.38533154  0.25751532  0.58035613  1
  C  C140  1  0.49334537  0.44511631  0.61565401  1
  C  C141  1  0.29406732  0.46143908  0.66300003  1
  H  H142  1  0.34251348  0.26067406  0.64160193  1
  H  H143  1  0.36420235  0.10200714  0.66665321  1
  C  C144  1  0.28307057  0.08820491  0.65330515  1
  C  C145  1  0.28486150  0.06524095  0.60210691  1
  C  C146  1  0.25820050  0.45647212  0.69895817  1
  O  O147  1  0.43166681  0.20077192  0.65218808  1
  H  H148  1  0.33291621  0.44807031  0.57852077  1
  C  C149  1  0.32661567  0.10790947  0.68287435  1
  C  C150  1  0.31929789  0.14241333  0.72910656  1
  H  H151  1  0.46568204  0.39639053  0.63214263  1
  C  C152  1  0.26865479  0.47985715  0.74758744  1
  C  C153  1  0.20251777  0.30244224  0.84638613  1
  C  C154  1  0.14743524  0.33609355  0.85482655  1
  C  C155  1  0.12993355  0.31359668  0.90283821  1
  C  C156  1  0.11457383  0.38295941  0.82311688  1
  H  H157  1  0.13010386  0.39333104  0.78588894  1
  C  C158  1  0.05396228  0.40474644  0.88502221  1
  C  C159  1  0.06874700  0.42272467  0.83772702  1
  C  C160  1  0.20963141  0.24920672  0.80474479  1
  C  C161  1  0.08250650  0.34521497  0.91538941  1
  H  H162  1  0.15420929  0.26341174  0.92175338  1
  H  H163  1  0.06953252  0.31886608  0.95263276  1
  H  H164  1  0.17637027  0.23733712  0.78164115  1
  H  H165  1  0.05054159  0.46680798  0.81053546  1
  H  H166  1  0.24387304  0.36595375  0.91146915  1
  C  C167  1  0.24461725  0.32066584  0.87939614  1
  C  C168  1  0.00601750  0.43919322  0.90419814  1
  H  H169  1  0.24033889  0.47699381  0.77501240  1
  C  C170  1  0.25826355  0.20576007  0.79535471  1
  H  H171  1  0.48820740  0.00017546  0.77509327  1
  H  H172  1  0.49256061  0.33317405  0.81173699  1
  C  C173  1  0.27853456  0.02580938  0.88112889  1
  C  C174  1  0.37354735  0.29948763  0.98199170  1
  C  C175  1  0.30204700  0.05120741  0.96965562  1
  H  H176  1  0.39003099  0.36163158  0.84563026  1
  O  O177  1  0.38800420  0.01371796  0.87407520  1
  C  C178  1  0.38308787  0.34386429  0.88273179  1
  C  C179  1  0.33473210  0.28312023  0.94908529  1
  O  O180  1  0.49460255  0.41938782  0.98425420  1
  H  H181  1  0.30267113  0.24338410  0.96098470  1
  C  C182  1  0.42479294  0.01620219  0.83868836  1
  O  O183  1  0.44592660  0.08358635  0.82750422  1
  H  H184  1  0.33721218  0.18702425  0.82134165  1
  H  H185  1  0.45764246  0.39819812  0.89951942  1
  O  O186  1  0.34752429  0.07310134  0.95641553  1
  H  H187  1  0.30865663  0.49411677  0.93169957  1
  H  H188  1  0.31360591  0.06277542  0.86953632  1
  C  C189  1  0.41694481  0.34141745  0.96405277  1
  C  C190  1  0.29152273  0.27828099  0.86800926  1
  C  C191  1  0.29937494  0.22084097  0.82735313  1
  C  C192  1  0.33676297  0.30482168  0.90045827  1
  C  C193  1  0.42258169  0.35941090  0.91392130  1
  H  H194  1  0.26783882  0.49806102  0.85351345  1
  C  C195  1  0.26617287  0.01971067  0.93004227  1
  C  C196  1  0.26830801  0.15114347  0.75032807  1
  C  C197  1  0.17544626  0.72449295  0.14322426  1
  C  C198  1  0.18699962  0.81974229  0.14964879  1
  O  O199  1  0.12077984  0.61030430  0.11416284  1
  O  O200  1  0.09292943  0.75237655  0.10875316  1
  C  C201  1  0.12759663  0.69485950  0.11929945  1
  Cu  Cu202  1  0.07665907  0.76822065  0.04217988  1
  H  H203  1  0.15762726  0.86494032  0.13888919  1
  H  H204  1  0.16786999  0.88352585  0.03859540  1
  H  H205  1  0.01559215  0.60119824  0.16012657  1
  Cu  Cu206  1  0.08429195  0.53961362  0.06911470  1
  C  C207  1  0.21136608  0.65492679  0.15669903  1
  H  H208  1  0.20601530  0.58311963  0.14891674  1
  O  O209  1  0.13600136  0.70766734  0.01624881  1
  C  C210  1  0.16585647  0.95010006  0.05653972  1
  C  C211  1  0.23161667  0.84726944  0.17084481  1
  Cu  Cu212  1  0.02996641  0.63219305  0.01053515  1
  C  C213  1  0.20637057  0.98393330  0.08195087  1
  C  C214  1  0.07889198  0.96994764  0.02462054  1
  H  H215  1  0.24354851  0.92079881  0.17387864  1
  O  O216  1  0.09347905  0.57702694  0.00669252  1
  O  O217  1  0.08193321  0.88546603  0.00685060  1
  H  H218  1  0.24132240  0.93970215  0.08419500  1
  H  H219  1  0.43252739  0.93073225  0.15530365  1
  C  C220  1  0.41194538  0.79339649  0.21140200  1
  C  C221  1  0.35038069  0.53377857  0.18010126  1
  C  C222  1  0.36389927  0.77827296  0.18842042  1
  C  C223  1  0.39453574  0.57307212  0.15048781  1
  C  C224  1  0.46283061  0.80403891  0.18417731  1
  C  C225  1  0.25596779  0.68364242  0.18001404  1
  C  C226  1  0.26717430  0.78128106  0.18773184  1
  H  H227  1  0.31348451  0.50164933  0.11138974  1
  C  C228  1  0.34985355  0.53545372  0.23244228  1
  C  C229  1  0.43588426  0.62622337  0.07479849  1
  C  C230  1  0.48835193  0.56228719  0.14345394  1
  H  H231  1  0.28644575  0.63603122  0.18944572  1
  C  C232  1  0.31841404  0.78805291  0.21581023  1
  H  H233  1  0.35577320  0.62519890  0.08605305  1
  C  C234  1  0.48393465  0.60275823  0.09636644  1
  H  H235  1  0.43503694  0.65488229  0.03766004  1
  H  H236  1  0.36516702  0.75181288  0.15034059  1
  C  C237  1  0.44446399  0.55061373  0.16940567  1
  C  C238  1  0.46455417  0.88423583  0.15512211  1
  H  H239  1  0.44833386  0.51966174  0.20538050  1
  C  C240  1  0.39283480  0.61207252  0.10376857  1
  O  O241  1  0.06276188  0.89393873  0.40661365  1
  Cu  Cu242  1  0.08576424  0.88307456  0.46877765  1
  O  O243  1  0.03593460  0.78500313  0.35999954  1
  C  C244  1  0.02495938  0.84336534  0.38761734  1
  H  H245  1  0.01432642  0.55288031  0.48109806  1
  C  C246  1  0.05640898  0.55887481  0.49034382  1
  Cu  Cu247  1  0.45348749  0.50586403  0.43766463  1
  O  O248  1  0.48655717  0.52848772  0.37780921  1
  C  C249  1  0.43181792  0.92373191  0.40181041  1
  C  C250  1  0.33196343  0.86456058  0.37033912  1
  H  H251  1  0.29385999  0.83981225  0.35839942  1
  C  C252  1  0.39815575  0.94981394  0.48341972  1
  O  O253  1  0.43072173  0.61410812  0.46476698  1
  C  C254  1  0.31994792  0.80504284  0.26674270  1
  H  H255  1  0.29996007  0.55091580  0.34949400  1
  H  H256  1  0.45245556  0.89827607  0.32526558  1
  H  H257  1  0.30806809  0.90180896  0.44136774  1
  C  C258  1  0.34090763  0.89573344  0.41777253  1
  C  C259  1  0.42215276  0.89899110  0.35413456  1
  H  H260  1  0.46896867  0.94771655  0.41382550  1
  C  C261  1  0.36806976  0.83055016  0.28678901  1
  C  C262  1  0.37334530  0.87064643  0.33795954  1
  C  C263  1  0.39076784  0.92222256  0.43313570  1
  H  H264  1  0.28278040  0.81529919  0.28350779  1
  C  C265  1  0.41442174  0.82000906  0.26060035  1
  H  H266  1  0.45427418  0.82786720  0.27741175  1
  H  H267  1  0.38147528  0.56193598  0.25500967  1
  C  C268  1  0.12349814  0.69416200  0.65211352  1
  C  C269  1  0.13874135  0.63088516  0.68823118  1
  H  H270  1  0.14465280  0.75946340  0.64468652  1
  C  C271  1  0.16462849  0.94084541  0.53172601  1
  C  C272  1  0.18375682  0.64823982  0.72204319  1
  C  C273  1  0.08013284  0.67292210  0.62643135  1
  C  C274  1  0.21361821  0.87927594  0.65364264  1
  C  C275  1  0.16804029  0.89102797  0.68180103  1
  C  C276  1  0.21327365  0.88531686  0.60353580  1
  C  C277  1  0.16567032  0.91342830  0.58271388  1
  H  H278  1  0.09371018  0.79863843  0.71813391  1
  H  H279  1  0.06813123  0.72066558  0.59874794  1
  C  C280  1  0.05283864  0.59131755  0.63657251  1
  C  C281  1  0.12110453  0.91290531  0.65901099  1
  C  C282  1  0.12192259  0.92513654  0.60919039  1
  H  H283  1  0.08884331  0.94532803  0.58681088  1
  H  H284  1  0.08314935  0.91557272  0.67632692  1
  H  H285  1  0.13997476  0.72237456  0.53656264  1
  H  H286  1  0.06329763  0.69454369  0.71920182  1
  O  O287  1  0.06325815  0.80642223  0.51809019  1
  C  C288  1  0.22816385  0.69930461  0.70733412  1
  H  H289  1  0.23330414  0.71568342  0.66809878  1
  C  C290  1  0.11162557  0.54749886  0.69675719  1
  C  C291  1  0.12749193  0.65675198  0.51882395  1
  H  H292  1  0.19538175  0.58309556  0.52679184  1
  H  H293  1  0.24805587  0.88364807  0.58088333  1
  C  C294  1  0.04375952  0.72866311  0.50990447  1
  O  O295  1  0.20584527  0.94846350  0.50975399  1
  C  C296  1  0.06653109  0.52877416  0.67419929  1
  H  H297  1  0.24862995  0.86584135  0.67286407  1
  C  C298  1  0.15546568  0.57737170  0.51283793  1
  C  C299  1  0.07493269  0.64363105  0.50698304  1
  H  H300  1  0.20128314  0.52977701  0.62916629  1
  O  O301  1  0.12257478  0.95989173  0.50971726  1
  C  C302  1  0.00404656  0.57772384  0.61206941  1
  C  C303  1  0.11878735  0.81567621  0.74730221  1
  C  C304  1  0.15885720  0.87250759  0.73625689  1
  H  H305  1  0.12615505  0.50521954  0.72747123  1
  H  H306  1  0.39238344  0.55780114  0.73116407  1
  C  C307  1  0.43245243  0.94731310  0.66970408  1
  C  C308  1  0.38472733  0.54004213  0.54271599  1
  C  C309  1  0.49526215  0.64650849  0.70330261  1
  O  O310  1  0.47427216  0.71543405  0.50887141  1
  C  C311  1  0.32125869  0.87510021  0.74496863  1
  H  H312  1  0.36788694  0.99592822  0.74319347  1
  H  H313  1  0.48670064  0.69504798  0.67238626  1
  H  H314  1  0.33359235  0.68523830  0.66991214  1
  C  C315  1  0.31130296  0.78656554  0.72503304  1
  C  C316  1  0.26353303  0.72998391  0.74251771  1
  H  H317  1  0.46091016  0.70053988  0.60131628  1
  H  H318  1  0.40093964  0.78332488  0.63453853  1
  C  C319  1  0.41993366  0.61549507  0.55008398  1
  Cu  Cu320  1  0.45570414  0.92970498  0.56552820  1
  C  C321  1  0.34028453  0.75245221  0.68771217  1
  O  O322  1  0.35942355  0.96058582  0.50943287  1
  C  C323  1  0.37933681  0.80490445  0.66752395  1
  C  C324  1  0.43413779  0.64350756  0.59636302  1
  C  C325  1  0.40974534  0.60579136  0.63598674  1
  C  C326  1  0.37112024  0.53699012  0.63003721  1
  C  C327  1  0.39066620  0.89042701  0.68911923  1
  H  H328  1  0.42016234  0.62899594  0.67295240  1
  O  O329  1  0.45677138  0.91721677  0.63416557  1
  C  C330  1  0.36015843  0.92662536  0.72677112  1
  O  O331  1  0.44301892  0.95833972  0.50071551  1
  C  C332  1  0.34145006  0.50355294  0.67313028  1
  C  C333  1  0.35527121  0.52837045  0.72162215  1
  H  H334  1  0.37416866  0.52017063  0.50706744  1
  C  C335  1  0.44282446  0.64819071  0.50587811  1
  C  C336  1  0.36193427  0.50442271  0.58261007  1
  C  C337  1  0.19910753  0.63118858  0.85746120  1
  C  C338  1  0.15556596  0.62964779  0.94758341  1
  C  C339  1  0.21260382  0.70043922  0.89117359  1
  C  C340  1  0.20943586  0.65503921  0.80435694  1
  C  C341  1  0.18969676  0.69998168  0.93675391  1
  H  H342  1  0.12690300  0.79338639  0.86915113  1
  C  C343  1  0.13593986  0.81987737  0.83136357  1
  H  H344  1  0.19423949  0.75742360  0.96385667  1
  H  H345  1  0.04904897  0.72897992  0.87701371  1
  C  C346  1  0.05700626  0.72510016  0.79734776  1
  C  C347  1  0.17599687  0.88410128  0.82068044  1
  C  C348  1  0.10566739  0.78532380  0.79468000  1
  C  C349  1  0.03337084  0.70718788  0.84283063  1
  H  H350  1  0.13409061  0.59686577  0.78320809  1
  C  C351  1  0.16823179  0.55473244  0.87280442  1
  C  C352  1  0.14489795  0.55300542  0.91723744  1
  H  H353  1  0.14593575  0.91006938  0.92369641  1
  C  C354  1  0.17117604  0.62581652  0.77069307  1
  C  C355  1  0.18986596  0.90796512  0.77230112  1
  C  C356  1  0.20332341  0.93378605  0.86330751  1
  C  C357  1  0.18508627  0.93584012  0.91291982  1
  H  H358  1  0.23518180  0.75959754  0.88164516  1
  C  C359  1  0.03950545  0.69077958  0.75254932  1
  H  H360  1  0.21920556  0.95962616  0.76023502  1
  C  C361  1  0.21718892  0.98382851  0.94465084  1
  H  H362  1  0.20480047  0.98200787  0.98375688  1
  H  H363  1  0.15978077  0.50252584  0.84621365  1
  H  H364  1  0.11501971  0.50031637  0.92493672  1
  C  C365  1  0.24625092  0.98714764  0.84815033  1
  C  C366  1  0.12721294  0.63657877  0.99307017  1
  C  C367  1  0.39229219  0.54158366  0.81858612  1
  C  C368  1  0.33832249  0.52142317  0.81045452  1
  C  C369  1  0.38155034  0.54157568  0.90638490  1
  H  H370  1  0.27858675  0.73554477  0.82095165  1
  C  C371  1  0.25247768  0.70977025  0.79169911  1
  C  C372  1  0.48529205  0.84576317  0.76231374  1
  C  C373  1  0.40645782  0.56259014  0.95397647  1
  H  H374  1  0.29674555  0.89626758  0.77713049  1
  C  C375  1  0.30992332  0.51276855  0.85278041  1
  O  O376  1  0.42974789  0.88228128  0.92675450  1
  C  C377  1  0.46489219  0.75896171  0.77286785  1
  C  C378  1  0.46025182  0.84942052  0.95836623  1
  H  H379  1  0.39948768  0.69392238  0.81600965  1
  C  C380  1  0.42196605  0.75866163  0.80624846  1
  O  O381  1  0.45452303  0.58242377  0.95486660  1
  C  C382  1  0.40421877  0.84132871  0.82786037  1
  C  C383  1  0.49183678  0.67255339  0.75253567  1
  C  C384  1  0.43303287  0.92193081  0.81760048  1
  C  C385  1  0.47026669  0.93120540  0.78096964  1
  C  C386  1  0.33098288  0.51603313  0.89961172  1
  O  O387  1  0.37987283  0.56250292  0.98996876  1
  C  C388  1  0.41231296  0.55671240  0.86529262  1
  H  H389  1  0.37539153  0.84425110  0.85648395  1
  H  H390  1  0.45221196  0.58262266  0.86991789  1
  H  H391  1  0.25430754  0.99225207  0.80764063  1
  H  H392  1  0.41874220  0.55407567  0.78648122  1
  C  C393  1  0.31894440  0.50791375  0.75984968  1
  Cu  Cu394  1  0.38803773  0.97815089  0.93698521  1
  O  O395  1  0.44744187  0.81743331  0.99653111  1
  C  C396  1  0.69326425  0.15453222  0.16309320  1
  O  O397  1  0.56846834  0.14251549  0.08297289  1
  O  O398  1  0.64538056  0.15621709  0.15093590  1
  C  C399  1  0.53044272  0.12160964  0.05727779  1
  O  O400  1  0.72197081  0.21067648  0.14728671  1
  C  C401  1  0.69405227  0.14466666  0.03384316  1
  C  C402  1  0.72177105  0.41969105  0.14781159  1
  C  C403  1  0.73009340  0.42663649  0.09867971  1
  O  O404  1  0.70134060  0.22949122  0.02632119  1
  Cu  Cu405  1  0.62475191  0.06833012  0.11148044  1
  C  C406  1  0.70605263  0.06576155  0.19262933  1
  H  H407  1  0.68342621  0.31263065  0.21517045  1
  H  H408  1  0.69961527  0.43812523  0.07298629  1
  H  H409  1  0.68352098  0.41835628  0.16424027  1
  H  H410  1  0.61783330  0.30203474  0.23421127  1
  O  O411  1  0.53083220  0.12440181  0.01164514  1
  H  H412  1  0.62641898  0.05060612  0.21295812  1
  C  C413  1  0.70864263  0.33617743  0.24299975  1
  H  H414  1  0.51408846  0.13735617  0.15138211  1
  O  O415  1  0.65357830  0.10648528  0.01525672  1
  C  C416  1  0.73301283  0.08777473  0.05705810  1
  H  H417  1  0.53342809  0.23160189  0.24984567  1
  C  C418  1  0.66476187  0.01869912  0.21174720  1
  C  C419  1  0.75399202  0.38651003  0.23218509  1
  C  C420  1  0.76552186  0.40706439  0.17926695  1
  C  C421  1  0.81052176  0.00250484  0.10251394  1
  C  C422  1  0.98361825  0.49498668  0.08687584  1
  H  H423  1  0.90643984  0.49824238  0.17094098  1
  O  O424  1  0.97633997  0.40986547  0.19111750  1
  C  C425  1  0.92605208  0.21719687  0.15417852  1
  H  H426  1  0.81241128  0.20532687  0.15582768  1
  O  O427  1  0.82676866  0.35178867  0.01330603  1
  C  C428  1  0.78019754  0.40214718  0.08095618  1
  C  C429  1  0.88798197  0.21754828  0.19425120  1
  H  H430  1  0.85331513  0.13492098  0.09731863  1
  C  C431  1  0.75707841  0.04064365  0.19937744  1
  H  H432  1  0.84529673  0.38951877  0.18643908  1
  C  C433  1  0.77737417  0.14036159  0.06643977  1
  H  H434  1  0.86393172  0.07334984  0.18378198  1
  C  C435  1  0.83486763  0.20334803  0.19005142  1
  O  O436  1  0.96434488  0.44457283  0.05481146  1
  H  H437  1  0.95320041  0.23607368  0.24140758  1
  O  O438  1  0.97416776  0.23378309  0.16455194  1
  C  C439  1  0.81559075  0.39962268  0.16053489  1
  O  O440  1  0.91384181  0.20770153  0.11276484  1
  H  H441  1  0.76681839  0.20510594  0.23252333  1
  C  C442  1  0.91101262  0.22584070  0.24012806  1
  C  C443  1  0.78668719  0.38184875  0.02908496  1
  C  C444  1  0.97088904  0.42731816  0.23906868  1
  C  C445  1  0.80657487  0.20201358  0.23191380  1
  H  H446  1  0.86291826  0.37712450  0.09488613  1
  H  H447  1  0.79074182  0.07862057  0.18178664  1
  H  H448  1  0.77864449  0.21383412  0.05766101  1
  C  C449  1  0.82500251  0.39777893  0.11015359  1
  C  C450  1  0.81767045  0.09520475  0.08767721  1
  C  C451  1  0.92689500  0.49176460  0.24526010  1
  H  H452  1  0.98013068  0.05420247  0.21629178  1
  C  C453  1  0.87028523  0.00064361  0.17591037  1
  C  C454  1  0.55650027  0.18242367  0.32405082  1
  C  C455  1  0.59515674  0.17614138  0.35949862  1
  C  C456  1  0.64748832  0.27448293  0.30593565  1
  H  H457  1  0.59338375  0.13486733  0.39174671  1
  H  H458  1  0.67209802  0.23366648  0.37753239  1
  C  C459  1  0.69779006  0.31976783  0.29218581  1
  C  C460  1  0.64135364  0.22556906  0.35096413  1
  H  H461  1  0.60824545  0.39838582  0.33764773  1
  C  C462  1  0.56325200  0.22551081  0.27868674  1
  O  O463  1  0.52441824  0.39578893  0.36710163  1
  Cu  Cu464  1  0.54647657  0.33146034  0.42414652  1
  H  H465  1  0.71958085  0.33087799  0.36924677  1
  C  C466  1  0.72901889  0.34793197  0.33199656  1
  C  C467  1  0.61296932  0.47480489  0.33178715  1
  O  O468  1  0.52904058  0.13407538  0.47246216  1
  C  C469  1  0.57150143  0.17417947  0.47627764  1
  H  H470  1  0.64546029  0.08015039  0.30533662  1
  O  O471  1  0.57634508  0.26091754  0.47074478  1
  C  C472  1  0.61030735  0.26952369  0.26817578  1
  C  C473  1  0.52427364  0.48413190  0.36198850  1
  O  O474  1  0.52675751  0.43139563  0.46464963  1
  C  C475  1  0.74044991  0.07798036  0.35931892  1
  C  C476  1  0.61500919  0.11302369  0.48700923  1
  H  H477  1  0.69055151  0.48783313  0.30601383  1
  H  H478  1  0.72741235  0.09116039  0.43821528  1
  C  C479  1  0.60656749  0.01513714  0.48450669  1
  C  C480  1  0.64998600  0.02298983  0.33184685  1
  C  C481  1  0.50206698  0.15411339  0.33468029  1
  C  C482  1  0.55538441  0.48134430  0.49177412  1
  C  C483  1  0.69473683  0.00928199  0.35846418  1
  H  H484  1  0.74654902  0.08004029  0.28083540  1
  C  C485  1  0.97507355  0.14486760  0.37439645  1
  C  C486  1  0.98351129  0.09866743  0.28829950  1
  H  H487  1  0.90268733  0.19689490  0.31762334  1
  H  H488  1  0.82799356  0.43605753  0.25637625  1
  C  C489  1  0.88462928  0.20749448  0.28301447  1
  C  C490  1  0.75314349  0.10000838  0.40746383  1
  H  H491  1  0.93702127  0.49689558  0.32382945  1
  C  C492  1  0.91077820  0.04024326  0.33978973  1
  C  C493  1  0.81086899  0.42213378  0.35684562  1
  C  C494  1  0.80960033  0.20732161  0.45830079  1
  C  C495  1  0.83313491  0.29714761  0.45888574  1
  H  H496  1  0.87862578  0.35912348  0.32392296  1
  C  C497  1  0.95917658  0.04848670  0.25240925  1
  C  C498  1  0.86375740  0.39934099  0.35581284  1
  H  H499  1  0.89292140  0.04458499  0.37550101  1
  C  C500  1  0.95758035  0.09059407  0.33251539  1
  C  C501  1  0.77539173  0.38771452  0.31682166  1
  H  H502  1  0.93814821  0.41396187  0.38898058  1
  C  C503  1  0.79318810  0.16423493  0.41115444  1
  O  O504  1  0.95315198  0.14587826  0.41272204  1
  C  C505  1  0.83096949  0.19899710  0.27778119  1
  C  C506  1  0.80133070  0.16888465  0.32236266  1
  C  C507  1  0.89804849  0.43675782  0.38887237  1
  H  H508  1  0.84931422  0.25234232  0.36976621  1
  H  H509  1  0.83122690  0.34230954  0.42763150  1
  C  C510  1  0.81900668  0.20042025  0.36858476  1
  C  C511  1  0.79030864  0.40919868  0.26859494  1
  C  C512  1  0.78933220  0.48899012  0.39006440  1
  C  C513  1  0.75820035  0.10882068  0.31582703  1
  H  H514  1  0.78782980  0.08189619  0.49845324  1
  C  C515  1  0.60139460  0.34903719  0.69210156  1
  H  H516  1  0.59987261  0.39467106  0.66071875  1
  H  H517  1  0.56575809  0.23712759  0.65312528  1
  C  C518  1  0.58378498  0.25797966  0.68669852  1
  O  O519  1  0.54635182  0.06850133  0.69287300  1
  C  C520  1  0.58475524  0.20335592  0.72904639  1
  C  C521  1  0.62243431  0.38336097  0.73625599  1
  H  H522  1  0.52387690  0.42457910  0.72405093  1
  C  C523  1  0.56534055  0.10486696  0.73314019  1
  C  C524  1  0.54194202  0.49293420  0.54554243  1
  C  C525  1  0.69901957  0.00310511  0.50174749  1
  C  C526  1  0.70174636  0.09734739  0.51414735  1
  C  C527  1  0.63951353  0.48431793  0.74170523  1
  C  C528  1  0.51291207  0.49192158  0.73369980  1
  H  H529  1  0.73693968  0.12537175  0.53056104  1
  C  C530  1  0.66078679  0.15364351  0.50309815  1
  H  H531  1  0.66029381  0.22407902  0.50921010  1
  C  C532  1  0.50803869  0.43033183  0.56866635  1
  C  C533  1  0.85524366  0.26924146  0.54321549  1
  H  H534  1  0.83965688  0.12955306  0.57282813  1
  C  C535  1  0.88303098  0.30629620  0.58568448  1
  Cu  Cu536  1  0.97948320  0.38585365  0.58765022  1
  O  O537  1  0.91038295  0.38201581  0.57912248  1
  O  O538  1  0.88356051  0.26038936  0.62142333  1
  H  H539  1  0.76932613  0.47371926  0.59134392  1
  C  C540  1  0.83500108  0.17787386  0.54215019  1
  O  O541  1  0.75879455  0.42253860  0.67748392  1
  C  C542  1  0.80952612  0.15096614  0.50095965  1
  C  C543  1  0.85505037  0.32867167  0.50213914  1
  H  H544  1  0.87161519  0.39941638  0.50543791  1
  C  C545  1  0.58818064  0.35316517  0.88939758  1
  C  C546  1  0.54774262  0.31123925  0.86462484  1
  C  C547  1  0.61910511  0.29792216  0.92068440  1
  H  H548  1  0.65994174  0.06549407  0.90087914  1
  O  O549  1  0.61554406  0.21075075  0.92735491  1
  H  H550  1  0.63957693  0.34919072  0.80907620  1
  H  H551  1  0.54021680  0.23741441  0.87199450  1
  O  O552  1  0.65180684  0.34434328  0.94527259  1
  C  C553  1  0.52388138  0.36641962  0.83149782  1
  Cu  Cu554  1  0.71013281  0.30603758  0.97236142  1
  C  C555  1  0.68594101  0.02315853  0.92179954  1
  H  H556  1  0.60946856  0.18728988  0.80436229  1
  C  C557  1  0.59835281  0.44959016  0.88668358  1
  C  C558  1  0.53546257  0.46166192  0.82486485  1
  H  H559  1  0.71513519  0.12393922  0.84031300  1
  C  C560  1  0.62330195  0.32264539  0.77609809  1
  C  C561  1  0.60581170  0.23292927  0.77330813  1
  H  H562  1  0.64919631  0.46840211  0.82120785  1
  C  C563  1  0.73778153  0.05134463  0.92789690  1
  Cu  Cu564  1  0.59790787  0.15493418  0.98558874  1
  H  H565  1  0.63047739  0.48305740  0.91019562  1
  C  C566  1  0.73615902  0.16985755  0.86285953  1
  H  H567  1  0.74238938  0.28788944  0.81303273  1
  O  O568  1  0.56633625  0.06102996  0.77041069  1
  O  O569  1  0.74898715  0.40149842  0.99913664  1
  C  C570  1  0.80827347  0.40000066  0.85587795  1
  H  H571  1  0.81566471  0.01654078  0.95338375  1
  Cu  Cu572  1  0.90508662  0.47931005  0.87561182  1
  H  H573  1  0.82729686  0.33273660  0.94100131  1
  C  C574  1  0.75423540  0.25616950  0.84644045  1
  C  C575  1  0.78422031  0.20540177  0.93941066  1
  C  C576  1  0.75395868  0.14938775  0.90882341  1
  O  O577  1  0.97435599  0.47621789  0.87430497  1
  C  C578  1  0.80048391  0.28997440  0.92085008  1
  O  O579  1  0.99113068  0.40973188  0.94410823  1
  O  O580  1  0.83428677  0.45328442  0.88279883  1
  C  C581  1  0.78799061  0.31010197  0.87250511  1
  H  H582  1  0.79173739  0.18467510  0.97673744  1
  O  O583  1  0.79923521  0.42358146  0.81293673  1
  Cu  Cu584  1  0.96661905  0.48914362  0.99443613  1
  O  O585  1  0.63469940  0.82583908  0.10123907  1
  C  C586  1  0.59916742  0.88168838  0.11032806  1
  H  H587  1  0.58759959  0.72714462  0.17039596  1
  O  O588  1  0.57498499  0.61846140  0.09003179  1
  Cu  Cu589  1  0.62360310  0.69962993  0.08001775  1
  C  C590  1  0.55217574  0.77010636  0.16541013  1
  C  C591  1  0.55447038  0.85030735  0.13577450  1
  H  H592  1  0.53467811  0.81462547  0.02694294  1
  C  C593  1  0.53011751  0.62276334  0.07058196  1
  O  O594  1  0.66310393  0.71629998  0.02684962  1
  O  O595  1  0.72636966  0.61727632  0.02356624  1
  O  O596  1  0.52496861  0.64549514  0.02656943  1
  H  H597  1  0.62836340  0.85967908  0.01270641  1
  H  H598  1  0.68723234  0.95858047  0.06180105  1
  O  O599  1  0.59856401  0.95958802  0.08781398  1
  C  C600  1  0.72309362  0.90171656  0.24111003  1
  H  H601  1  0.52322854  0.53437515  0.15998379  1
  C  C602  1  0.50986398  0.90205536  0.13012198  1
  C  C603  1  0.67414449  0.93427240  0.23529364  1
  H  H604  1  0.51294155  0.96227019  0.10602548  1
  C  C605  1  0.50778107  0.75153443  0.18950080  1
  H  H606  1  0.50709806  0.69046106  0.21318247  1
  C  C607  1  0.72426166  0.99432611  0.06978443  1
  H  H608  1  0.64233309  0.88785131  0.24425614  1
  C  C609  1  0.69365765  0.65891801  0.00361096  1
  C  C610  1  0.89168333  0.83041925  0.01778886  1
  H  H611  1  0.84515905  0.96077462  0.02485067  1
  C  C612  1  0.95246667  0.56691660  0.11025095  1
  C  C613  1  0.97730885  0.61631057  0.14750016  1
  O  O614  1  0.97351144  0.70024620  0.01444289  1
  H  H615  1  0.83417732  0.60229635  0.18097526  1
  H  H616  1  0.92742422  0.86276141  0.03208931  1
  H  H617  1  0.81158981  0.78558462  0.22659477  1
  C  C618  1  0.84907082  0.85632263  0.12935671  1
  C  C619  1  0.90212274  0.58443416  0.09314883  1
  C  C620  1  0.90352522  0.71984155  0.14537014  1
  C  C621  1  0.84747903  0.95356802  0.13497814  1
  C  C622  1  0.76433521  0.95626887  0.22299771  1
  H  H623  1  0.96686918  0.72669657  0.19741856  1
  C  C624  1  0.85748416  0.58521337  0.21449281  1
  C  C625  1  0.76332801  0.95470653  0.09425819  1
  C  C626  1  0.87861409  0.66269477  0.10911773  1
  H  H627  1  0.88510886  0.53443679  0.06883133  1
  C  C628  1  0.89856974  0.52463045  0.20721571  1
  H  H629  1  0.83842154  0.82480833  0.09370764  1
  H  H630  1  0.76099581  0.88561681  0.10819698  1
  H  H631  1  0.84118614  0.68027099  0.09509092  1
  C  C632  1  0.89590115  0.84951740  0.20822579  1
  H  H633  1  0.91540386  0.81078850  0.23582938  1
  H  H634  1  0.80440267  0.92635222  0.22287809  1
  C  C635  1  0.95127038  0.69163893  0.16511872  1
  C  C636  1  0.89124863  0.94761488  0.21326742  1
  C  C637  1  0.87963189  0.80824057  0.16295289  1
  C  C638  1  0.88646001  0.73474111  0.00454790  1
  C  C639  1  0.84823318  0.88516177  0.01372033  1
  C  C640  1  0.92964809  0.67191291  0.00118867  1
  C  C641  1  0.61332387  0.89489653  0.37092384  1
  O  O642  1  0.52903008  0.85079344  0.36180515  1
  C  C643  1  0.56725692  0.83650980  0.38494056  1
  C  C644  1  0.65679529  0.87669097  0.39891721  1
  C  C645  1  0.56796026  0.62764720  0.33770979  1
  H  H646  1  0.65999770  0.81500493  0.42407209  1
  C  C647  1  0.61236883  0.67226748  0.32613963  1
  C  C648  1  0.65719178  0.61874496  0.31667786  1
  H  H649  1  0.61446917  0.74971074  0.32107571  1
  H  H650  1  0.53418520  0.66698829  0.34888045  1
  O  O651  1  0.57134094  0.77249468  0.41688740  1
  C  C652  1  0.69478649  0.76354843  0.28506937  1
  C  C653  1  0.70483947  0.67005506  0.30057638  1
  C  C654  1  0.69841092  0.93813970  0.39415683  1
  C  C655  1  0.60908089  0.96219748  0.33572946  1
  Cu  Cu656  1  0.52661743  0.74810054  0.46564191  1
  H  H657  1  0.65803051  0.79592003  0.28726749  1
  H  H658  1  0.57275332  0.97038041  0.31186055  1
  C  C659  1  0.65162837  0.96265648  0.48933375  1
  C  C660  1  0.57052194  0.52971983  0.34258337  1
  C  C661  1  0.65586367  0.52175960  0.31566301  1
  H  H662  1  0.73348590  0.92356608  0.41498083  1
  O  O663  1  0.58859210  0.53043674  0.47756674  1
  H  H664  1  0.74869610  0.50707058  0.38637830  1
  C  C665  1  0.73648462  0.80356405  0.25932002  1
  H  H666  1  0.56836574  0.98264040  0.47265919  1
  H  H667  1  0.64819885  0.88946565  0.48168394  1
  C  C668  1  0.78518452  0.92177734  0.47556085  1
  C  C669  1  0.87587563  0.50114331  0.42084745  1
  C  C670  1  0.95350662  0.92195502  0.43651717  1
  C  C671  1  0.88494113  0.99338087  0.30209684  1
  C  C672  1  0.78329834  0.75912645  0.25167502  1
  C  C673  1  0.79310671  0.67111741  0.27180338  1
  H  H674  1  0.84920806  0.95250012  0.30601978  1
  C  C675  1  0.87160117  0.84613038  0.45154870  1
  C  C676  1  0.84131366  0.61131811  0.26078028  1
  C  C677  1  0.94150864  0.76719785  0.40842892  1
  C  C678  1  0.91300071  0.99792295  0.25750571  1
  C  C679  1  0.91203070  0.53812268  0.45806440  1
  C  C680  1  0.82388374  0.52767173  0.42137662  1
  C  C681  1  0.97154488  0.84617112  0.40972062  1
  C  C682  1  0.75238280  0.62335038  0.29513047  1
  H  H683  1  0.75286857  0.55512269  0.31289088  1
  O  O684  1  0.90018407  0.60103959  0.49028994  1
  C  C685  1  0.87089595  0.57585340  0.30051734  1
  H  H686  1  0.86338829  0.70728845  0.42034523  1
  H  H687  1  0.80902213  0.57898641  0.44639494  1
  C  C688  1  0.89260876  0.76478268  0.42807491  1
  H  H689  1  0.86093769  0.58898845  0.33815933  1
  H  H690  1  0.95583817  0.70836822  0.38845525  1
  C  C691  1  0.82176754  0.84786471  0.48038462  1
  H  H692  1  0.97973641  0.98420605  0.44335659  1
  C  C693  1  0.90315668  0.92409285  0.45367708  1
  H  H694  1  0.88867663  0.99100424  0.46986615  1
  C  C695  1  0.91582730  0.52467421  0.29313991  1
  H  H696  1  0.79066331  0.97773950  0.45125663  1
  O  O697  1  0.95404346  0.50550985  0.45465302  1
  C  C698  1  0.64511882  0.68818904  0.62155112  1
  H  H699  1  0.70277450  0.86985050  0.56801852  1
  C  C700  1  0.58252239  0.79947298  0.59571065  1
  C  C701  1  0.56962757  0.82491543  0.64397624  1
  C  C702  1  0.62970640  0.70558702  0.67040420  1
  C  C703  1  0.62404781  0.74024148  0.58450122  1
  H  H704  1  0.53792246  0.87604882  0.64963785  1
  C  C705  1  0.55397854  0.84399566  0.55719507  1
  H  H706  1  0.67821662  0.63895205  0.61513861  1
  C  C707  1  0.59403136  0.77875085  0.68131090  1
  H  H708  1  0.63680193  0.73616819  0.54765109  1
  C  C709  1  0.64408972  0.64525904  0.71272404  1
  H  H710  1  0.58315318  0.79423705  0.71827798  1
  C  C711  1  0.63726913  0.54981563  0.70379104  1
  C  C712  1  0.56456568  0.56727635  0.57031422  1
  H  H713  1  0.59530185  0.60917546  0.55443463  1
  H  H714  1  0.56267721  0.63716890  0.64348724  1
  C  C715  1  0.54748171  0.58079587  0.61829927  1
  O  O716  1  0.52478593  0.91240215  0.56982734  1
  H  H717  1  0.62719520  0.52797703  0.66617211  1
  C  C718  1  0.51288935  0.52260391  0.64126106  1
  C  C719  1  0.50220568  0.55197245  0.69455229  1
  C  C720  1  0.73568768  0.86204397  0.54284030  1
  H  H721  1  0.51938071  0.84058311  0.73681444  1
  O  O722  1  0.56601285  0.82279987  0.51514760  1
  C  C723  1  0.74190677  0.92915323  0.50580946  1
  H  H724  1  0.74794921  0.81425073  0.64408802  1
  H  H725  1  0.74798018  0.68265825  0.70561101  1
  C  C726  1  0.76385245  0.50155332  0.69044594  1
  H  H727  1  0.84081079  0.71864894  0.51654010  1
  C  C728  1  0.75217798  0.73877778  0.63342636  1
  O  O729  1  0.76991551  0.52608370  0.73514177  1
  C  C730  1  0.75113658  0.66702002  0.66647713  1
  O  O731  1  0.98609539  0.64436688  0.58759216  1
  C  C732  1  0.76556335  0.62031531  0.57050514  1
  C  C733  1  0.75933118  0.57612294  0.65186292  1
  C  C734  1  0.81378590  0.77749028  0.51545622  1
  C  C735  1  0.76349839  0.71405767  0.58522190  1
  O  O736  1  0.99731106  0.71489408  0.50018668  1
  H  H737  1  0.96978600  0.64303572  0.71550900  1
  C  C738  1  0.77226515  0.79037948  0.54738603  1
  C  C739  1  0.76445160  0.54907099  0.60377916  1
  H  H740  1  0.76589866  0.59761606  0.53128582  1
  Cu  Cu741  1  0.94513944  0.63985417  0.53362815  1
  O  O742  1  0.98062358  0.50431420  0.61987515  1
  C  C743  1  0.98894410  0.65633289  0.74979584  1
  C  C744  1  0.66984525  0.63237684  0.85007163  1
  C  C745  1  0.68425491  0.64843295  0.95057736  1
  C  C746  1  0.63897336  0.69674613  0.87727719  1
  C  C747  1  0.64419443  0.69735702  0.92683075  1
  C  C748  1  0.71616887  0.58742653  0.92513890  1
  H  H749  1  0.60904816  0.73508974  0.85711041  1
  C  C750  1  0.70996751  0.58340977  0.87484039  1
  C  C751  1  0.65792241  0.61050525  0.79692951  1
  H  H752  1  0.57223659  0.58560679  0.85723875  1
  C  C753  1  0.71085956  0.88010284  0.96142980  1
  H  H754  1  0.62353063  0.74913052  0.94939061  1
  H  H755  1  0.70144005  0.80793929  0.97353971  1
  C  C756  1  0.67244215  0.93355015  0.93895498  1
  C  C757  1  0.61608718  0.90471546  0.94037318  1
  C  C758  1  0.59866597  0.86975197  0.98473351  1
  C  C759  1  0.51616502  0.87321077  0.95242708  1
  C  C760  1  0.53057991  0.90579039  0.90708756  1
  C  C761  1  0.51593291  0.52208685  0.78281618  1
  H  H762  1  0.65802794  0.75294858  0.76832642  1
  O  O763  1  0.70430692  0.87768910  0.83262695  1
  C  C764  1  0.58226462  0.92401438  0.90165641  1
  H  H765  1  0.59762027  0.94874732  0.86616292  1
  C  C766  1  0.65238250  0.51502274  0.78922801  1
  H  H767  1  0.74084593  0.53495441  0.94304283  1
  H  H768  1  0.50101468  0.90654179  0.87979310  1
  H  H769  1  0.73466785  0.53864836  0.85062724  1
  C  C770  1  0.69310531  0.87906921  0.79570650  1
  C  C771  1  0.54696470  0.85366658  0.99253157  1
  C  C772  1  0.65470020  0.68113940  0.76018189  1
  Cu  Cu773  1  0.50912661  0.53398663  0.99538061  1
  C  C774  1  0.56867693  0.50690055  0.85806915  1
  C  C775  1  0.50614641  0.61562492  0.79156679  1
  H  H776  1  0.50659610  0.63967550  0.83028568  1
  C  C777  1  0.98574973  0.66510089  0.84117208  1
  C  C778  1  0.83894490  0.69131820  0.99195188  1
  O  O779  1  0.89565850  0.55666285  0.76253084  1
  O  O780  1  0.89502500  0.58982540  0.83950510  1
  H  H781  1  0.96602606  0.64795965  0.87460339  1
  H  H782  1  0.76451634  0.72349700  0.96555762  1
  C  C783  1  0.91558488  0.59748615  0.79758505  1
  C  C784  1  0.79885393  0.75284579  0.98231464  1
  Cu  Cu785  1  0.82892711  0.51300688  0.77007846  1
  H  H786  1  0.83409655  0.61771711  0.98678714  1
  C  C787  1  0.75960417  0.91091647  0.97159864  1
  C  C788  1  0.77456152  0.99689391  0.95128220  1
  C  C789  1  0.80295398  0.85017266  0.99156663  1
  O  O790  1  0.92250529  0.58883095  0.98901207  1
  C  C791  1  0.96615097  0.63847065  0.79493033  1
