# generated using pymatgen
data_CuH10(C9O2)2
_symmetry_space_group_name_H-M   'P 1'
_cell_length_a   11.27816871
_cell_length_b   27.53325992
_cell_length_c   28.86769321
_cell_angle_alpha   90.00000000
_cell_angle_beta   90.00000000
_cell_angle_gamma   90.00000000
_symmetry_Int_Tables_number   1
_chemical_formula_structural   CuH10(C9O2)2
_chemical_formula_sum   'Cu24 H240 C432 O96'
_cell_volume   8964.13323691
_cell_formula_units_Z   24
loop_
 _symmetry_equiv_pos_site_id
 _symmetry_equiv_pos_as_xyz
  1  'x, y, z'
loop_
 _atom_site_type_symbol
 _atom_site_label
 _atom_site_symmetry_multiplicity
 _atom_site_fract_x
 _atom_site_fract_y
 _atom_site_fract_z
 _atom_site_occupancy
  C  C0  1  0.36471012  0.19492880  0.20632132  1
  C  C1  1  0.43062328  0.20362353  0.16579474  1
  H  H2  1  0.36955944  0.15655473  0.22204392  1
  C  C3  1  0.30666393  0.23614610  0.22678040  1
  H  H4  1  0.29885065  0.16318434  0.03151700  1
  O  O5  1  0.10186818  0.09781949  0.05055281  1
  H  H6  1  0.44058167  0.17369419  0.07811058  1
  C  C7  1  0.13098966  0.17290660  0.11623456  1
  C  C8  1  0.12363983  0.21176727  0.14740858  1
  C  C9  1  0.06992288  0.17675436  0.07373006  1
  H  H10  1  0.44789747  0.01793114  0.11965437  1
  C  C11  1  0.06360216  0.13974240  0.03849006  1
  H  H12  1  0.18741933  0.14211276  0.12508852  1
  H  H13  1  0.17083733  0.20493713  0.18204872  1
  C  C14  1  0.41659438  0.00228392  0.02694013  1
  H  H15  1  0.12936708  0.00167639  0.22780381  1
  C  C16  1  0.36074354  0.00412288  0.11097317  1
  C  C17  1  0.00985390  0.22124725  0.06435554  1
  O  O18  1  0.00385072  0.14510994  0.00168766  1
  O  O19  1  0.39953807  0.24330721  0.03536377  1
  C  C20  1  0.42322228  0.24754789  0.14153892  1
  H  H21  1  0.17981267  0.15487900  0.24485580  1
  C  C22  1  0.02973394  0.34530150  0.13811050  1
  H  H23  1  0.03071626  0.34520030  0.10061019  1
  H  H24  1  0.47321888  0.25023758  0.10981259  1
  C  C25  1  0.00360824  0.25874343  0.09574180  1
  C  C26  1  0.04455072  0.34466765  0.23942928  1
  C  C27  1  0.05720046  0.30224464  0.16595399  1
  H  H28  1  0.26906674  0.37152164  0.19406176  1
  H  H29  1  0.08106714  0.26516234  0.23364455  1
  H  H30  1  0.25487582  0.31160913  0.22043637  1
  C  C31  1  0.25428711  0.41791421  0.13408372  1
  C  C32  1  0.48675899  0.44476876  0.21781662  1
  C  C33  1  0.35388509  0.34010098  0.08374537  1
  H  H34  1  0.33249056  0.39030685  0.02497102  1
  C  C35  1  0.44561093  0.49134642  0.23542508  1
  C  C36  1  0.01509056  0.38740103  0.21442763  1
  H  H37  1  0.21678209  0.45065527  0.15395253  1
  C  C38  1  0.26069368  0.47306290  0.06670189  1
  C  C39  1  0.06855816  0.25594807  0.13843454  1
  C  C40  1  0.06692636  0.30005310  0.21501006  1
  C  C41  1  0.35500712  0.28731160  0.15890475  1
  O  O42  1  0.28638400  0.47990392  0.02489326  1
  C  C43  1  0.33472530  0.33450125  0.13349537  1
  H  H44  1  0.37811743  0.30829807  0.05957312  1
  C  C45  1  0.32688518  0.38486061  0.06239184  1
  C  C46  1  0.28312450  0.37524578  0.15693236  1
  C  C47  1  0.30389493  0.28031971  0.20367552  1
  C  C48  1  0.27566552  0.42461506  0.08516506  1
  C  C49  1  0.00705222  0.38687653  0.16578477  1
  C  C50  1  0.26969463  0.04837294  0.41463326  1
  O  O51  1  0.27059798  0.03999845  0.45797909  1
  C  C52  1  0.14564685  0.20044683  0.35752544  1
  C  C53  1  0.13564378  0.16956471  0.31841635  1
  C  C54  1  0.18477125  0.18034108  0.27638173  1
  O  O55  1  0.10608372  0.21845356  0.43573782  1
  H  H56  1  0.41136216  0.18587076  0.29170466  1
  O  O57  1  0.25191785  0.09102559  0.39976617  1
  Cu  Cu58  1  0.36104159  0.14239892  0.39800030  1
  C  C59  1  0.24102779  0.22704401  0.27193117  1
  H  H60  1  0.27089707  0.04860034  0.31798006  1
  O  O61  1  0.44599509  0.19926540  0.40630892  1
  O  O62  1  0.41519520  0.11810163  0.33899305  1
  C  C63  1  0.08225423  0.19128196  0.40110438  1
  Cu  Cu64  1  0.23816853  0.20766461  0.47756142  1
  H  H65  1  0.08044207  0.13569434  0.32386809  1
  Cu  Cu66  1  0.38940188  0.00655094  0.48402258  1
  Cu  Cu67  1  0.03134222  0.11119399  0.45670821  1
  C  C68  1  0.28132121  0.01241948  0.33426844  1
  O  O69  1  0.02752774  0.15290779  0.40714869  1
  C  C70  1  0.20980973  0.24459179  0.35209280  1
  C  C71  1  0.40354875  0.24058992  0.41607494  1
  C  C72  1  0.27786625  0.00645396  0.38316338  1
  O  O73  1  0.34536839  0.25045338  0.45235392  1
  C  C74  1  0.25978036  0.25900896  0.31073741  1
  H  H75  1  0.03754547  0.29355589  0.39354475  1
  H  H76  1  0.02356906  0.27746820  0.30707330  1
  C  C77  1  0.04920229  0.31143457  0.32178449  1
  C  C78  1  0.10222559  0.36600121  0.38534742  1
  H  H79  1  0.34127094  0.40030708  0.37639308  1
  C  C80  1  0.45304629  0.36206353  0.32446483  1
  C  C81  1  0.37849768  0.32746326  0.39583313  1
  H  H82  1  0.21457683  0.26784748  0.38412011  1
  C  C83  1  0.11582944  0.37194115  0.43716690  1
  C  C84  1  0.42770204  0.28085625  0.38475485  1
  C  C85  1  0.05335672  0.32242487  0.37005313  1
  H  H86  1  0.30779043  0.29433034  0.30830866  1
  C  C87  1  0.39595210  0.49021376  0.28122867  1
  O  O88  1  0.16052486  0.40686989  0.45276041  1
  H  H89  1  0.33733508  0.33519233  0.42865538  1
  H  H90  1  0.35108162  0.44972069  0.34293329  1
  C  C91  1  0.06811410  0.34993267  0.29037387  1
  C  C92  1  0.45621511  0.40672613  0.29458202  1
  C  C93  1  0.38563446  0.36568773  0.36605514  1
  C  C94  1  0.10585323  0.39781839  0.30564049  1
  C  C95  1  0.40084149  0.44973084  0.31121999  1
  H  H96  1  0.17423364  0.43587253  0.36302491  1
  O  O97  1  0.06484814  0.34142912  0.46624139  1
  H  H98  1  0.11844572  0.42833101  0.28163448  1
  C  C99  1  0.13177875  0.40173870  0.35238608  1
  H  H100  1  0.18182700  0.03300258  0.64079499  1
  C  C101  1  0.20871221  0.21015767  0.65512411  1
  C  C102  1  0.13129907  0.14901228  0.53963656  1
  C  C103  1  0.20966781  0.19641097  0.60852938  1
  C  C104  1  0.11807374  0.19176392  0.68423794  1
  C  C105  1  0.12933377  0.16353272  0.58934024  1
  H  H106  1  0.29053181  0.08297060  0.69509784  1
  C  C107  1  0.27644659  0.03654684  0.63334237  1
  C  C108  1  0.33767631  0.06293872  0.66673129  1
  H  H109  1  0.27478377  0.20793632  0.58099070  1
  C  C110  1  0.03719243  0.15740279  0.66452320  1
  C  C111  1  0.04013649  0.14225690  0.61820472  1
  H  H112  1  0.27919764  0.23662854  0.66683840  1
  O  O113  1  0.22276775  0.16195658  0.51867681  1
  C  C114  1  0.33793921  0.01235684  0.59546751  1
  C  C115  1  0.46665542  0.06475746  0.66098857  1
  C  C116  1  0.11639915  0.20588750  0.73532922  1
  O  O117  1  0.04934012  0.12564626  0.52094630  1
  C  C118  1  0.46147925  0.00528372  0.59594521  1
  H  H119  1  0.41866816  0.14979682  0.64007059  1
  H  H120  1  0.44606647  0.08383624  0.57832483  1
  H  H121  1  0.00720655  0.14111730  0.74425319  1
  C  C122  1  0.44804896  0.16012279  0.60367227  1
  C  C123  1  0.46461931  0.12322748  0.57047961  1
  C  C124  1  0.02222864  0.00446180  0.69125873  1
  C  C125  1  0.47878159  0.24558381  0.66494315  1
  C  C126  1  0.46638899  0.20786687  0.58545136  1
  H  H127  1  0.40840220  0.35764123  0.70620273  1
  C  C128  1  0.44516648  0.25044792  0.61721617  1
  C  C129  1  0.46080645  0.28497624  0.69512881  1
  H  H130  1  0.46515520  0.45665887  0.59088085  1
  H  H131  1  0.38887667  0.41893984  0.67882112  1
  C  C132  1  0.32140339  0.37858404  0.61882322  1
  H  H133  1  0.16566529  0.42507539  0.52898585  1
  C  C134  1  0.30364701  0.46717935  0.62871480  1
  C  C135  1  0.34047285  0.42193672  0.64524500  1
  H  H136  1  0.24839561  0.26389691  0.73568078  1
  O  O137  1  0.06132859  0.31600630  0.60064999  1
  Cu  Cu138  1  0.04112042  0.37480470  0.63393789  1
  C  C139  1  0.24293776  0.46691544  0.58683880  1
  O  O140  1  0.05287735  0.42783798  0.66891608  1
  H  H141  1  0.23637701  0.34473131  0.55739842  1
  C  C142  1  0.39554222  0.29428105  0.60069870  1
  H  H143  1  0.35944495  0.29726362  0.56408592  1
  C  C144  1  0.05870682  0.43311582  0.71301022  1
  C  C145  1  0.10695999  0.47983044  0.73098383  1
  C  C146  1  0.38210156  0.33271852  0.63316034  1
  C  C147  1  0.21277375  0.42356649  0.56219558  1
  C  C148  1  0.41319064  0.32885629  0.68103640  1
  C  C149  1  0.25056066  0.37936878  0.57743621  1
  O  O150  1  0.01628762  0.40328205  0.73944295  1
  C  C151  1  0.32002472  0.20642806  0.91700737  1
  C  C152  1  0.28989831  0.16351246  0.89423970  1
  H  H153  1  0.29029822  0.16492220  0.85595339  1
  C  C154  1  0.32892219  0.20503437  0.96700399  1
  H  H155  1  0.23865481  0.10101231  0.82728154  1
  C  C156  1  0.26192705  0.12117135  0.91909078  1
  C  C157  1  0.21995846  0.07432211  0.89825010  1
  C  C158  1  0.26193103  0.12334302  0.96827462  1
  C  C159  1  0.21264989  0.07023556  0.84984969  1
  C  C160  1  0.18794055  0.03283849  0.92448473  1
  C  C161  1  0.15813955  0.02890931  0.83093979  1
  C  C162  1  0.09139827  0.21809771  0.83241493  1
  H  H163  1  0.07107271  0.14553470  0.89809188  1
  C  C164  1  0.04674586  0.17235185  0.76066227  1
  H  H165  1  0.20842913  0.03529149  0.96163499  1
  C  C166  1  0.03786436  0.17821636  0.80980597  1
  H  H167  1  0.07950431  0.22539181  0.86978056  1
  C  C168  1  0.18227261  0.24489775  0.75522841  1
  H  H169  1  0.21956626  0.09557047  0.98929989  1
  H  H170  1  0.33673194  0.24003404  0.89881151  1
  C  C171  1  0.02101843  0.04446865  0.76444534  1
  C  C172  1  0.30034544  0.16261070  0.99244840  1
  H  H173  1  0.45969416  0.07802698  0.81219311  1
  C  C174  1  0.13112360  0.02163974  0.77811647  1
  C  C175  1  0.38260082  0.24609497  0.99452834  1
  H  H176  1  0.43508148  0.22422130  0.77066737  1
  H  H177  1  0.43392194  0.09109552  0.75630261  1
  C  C178  1  0.16193312  0.24993843  0.80418680  1
  H  H179  1  0.48672525  0.06888220  0.90132810  1
  C  C180  1  0.11413173  0.49202944  0.77813091  1
  Cu  Cu181  1  0.48894136  0.47017394  0.96770989  1
  C  C182  1  0.21668589  0.28671599  0.83582894  1
  C  C183  1  0.31681772  0.31659387  0.82573848  1
  C  C184  1  0.32092535  0.40444265  0.92591967  1
  H  H185  1  0.09728001  0.46501530  0.80499639  1
  H  H186  1  0.35745313  0.30901043  0.79219625  1
  C  C187  1  0.16726128  0.29596194  0.88044882  1
  Cu  Cu188  1  0.18675306  0.47817755  0.97204095  1
  H  H189  1  0.15816829  0.34049794  0.94179615  1
  H  H190  1  0.44916987  0.36967626  0.84675217  1
  O  O191  1  0.24146743  0.41705291  0.95500540  1
  O  O192  1  0.41569390  0.42974545  0.92146219  1
  H  H193  1  0.08917237  0.27357593  0.89155530  1
  O  O194  1  0.41311185  0.28599156  0.97000047  1
  C  C195  1  0.36249609  0.35175289  0.85461416  1
  C  C196  1  0.30087557  0.36185050  0.89735844  1
  C  C197  1  0.20190687  0.33468129  0.90909317  1
  C  C198  1  0.49610810  0.25326754  0.77911521  1
  C  C199  1  0.13270474  0.62169096  0.15189067  1
  C  C200  1  0.19207405  0.64577610  0.19101485  1
  O  O201  1  0.18770106  0.62148381  0.11432998  1
  Cu  Cu202  1  0.20624013  0.57200116  0.07589259  1
  C  C203  1  0.30177358  0.66904233  0.18707420  1
  H  H204  1  0.35080104  0.67091056  0.15437761  1
  C  C205  1  0.35311819  0.69129697  0.22704009  1
  H  H206  1  0.44030177  0.70867981  0.22385515  1
  O  O207  1  0.20995644  0.59263658  0.01632390  1
  H  H208  1  0.04386327  0.71454171  0.13565766  1
  C  C209  1  0.13710278  0.64077124  0.23663160  1
  O  O210  1  0.03807727  0.59781384  0.15753794  1
  H  H211  1  0.45067484  0.52686746  0.21417984  1
  O  O212  1  0.20757894  0.50508144  0.09050820  1
  H  H213  1  0.05083333  0.62503103  0.24008807  1
  C  C214  1  0.23040407  0.79214018  0.24013019  1
  C  C215  1  0.35593214  0.82855847  0.17673088  1
  H  H216  1  0.31751429  0.99435054  0.18114217  1
  C  C217  1  0.08761049  0.96595102  0.21873254  1
  H  H218  1  0.26106828  0.89079626  0.14670719  1
  H  H219  1  0.21254541  0.96013747  0.01710564  1
  C  C220  1  0.33166247  0.99349287  0.06588767  1
  H  H221  1  0.46463555  0.76471028  0.19641525  1
  H  H222  1  0.21930268  0.75764466  0.22173841  1
  O  O223  1  0.04618899  0.78799597  0.02650999  1
  C  C224  1  0.22545149  0.96989914  0.05394949  1
  C  C225  1  0.30384736  0.82956512  0.22531970  1
  C  C226  1  0.33024045  0.86362093  0.14347669  1
  C  C227  1  0.28375643  0.98751266  0.14468730  1
  H  H228  1  0.06971039  0.93104275  0.07783017  1
  C  C229  1  0.17954873  0.96236415  0.13489976  1
  H  H230  1  0.37595268  0.88932874  0.07265909  1
  C  C231  1  0.10894628  0.94083622  0.17533224  1
  H  H232  1  0.07405909  0.87181284  0.13563006  1
  C  C233  1  0.47975727  0.82894344  0.09528215  1
  C  C234  1  0.39514367  0.86379881  0.10190173  1
  C  C235  1  0.44951909  0.79336647  0.17154443  1
  C  C236  1  0.02002691  0.78493857  0.16954406  1
  H  H237  1  0.39437894  0.89825284  0.23840171  1
  C  C238  1  0.14919679  0.95293373  0.08767853  1
  H  H239  1  0.10998720  0.78728435  0.18249905  1
  C  C240  1  0.06106962  0.89489385  0.16651874  1
  H  H241  1  0.14765816  0.66102021  0.30968874  1
  H  H242  1  0.36518019  0.62692999  0.33655361  1
  C  C243  1  0.36480282  0.70344840  0.31389709  1
  C  C244  1  0.39074764  0.66553720  0.34474196  1
  H  H245  1  0.38409664  0.57334673  0.41661755  1
  C  C246  1  0.21365693  0.57998695  0.37652747  1
  C  C247  1  0.33512083  0.56710566  0.38343647  1
  O  O248  1  0.18578626  0.59811219  0.45567163  1
  C  C249  1  0.14394835  0.59790272  0.41426834  1
  C  C250  1  0.39590077  0.54121001  0.34972508  1
  C  C251  1  0.22627816  0.55154740  0.29787569  1
  C  C252  1  0.16568114  0.57678347  0.33170049  1
  C  C253  1  0.44980841  0.67760025  0.38710903  1
  C  C254  1  0.34105668  0.53434616  0.30472536  1
  C  C255  1  0.18430896  0.66338881  0.27521922  1
  C  C256  1  0.29699050  0.68590937  0.26952558  1
  H  H257  1  0.42548155  0.66245215  0.48016192  1
  C  C258  1  0.47593831  0.72696836  0.39591765  1
  H  H259  1  0.18266772  0.54129511  0.26464453  1
  H  H260  1  0.04542496  0.72460481  0.42390656  1
  C  C261  1  0.03315839  0.73207100  0.38523334  1
  C  C262  1  0.49083856  0.63642993  0.46240413  1
  H  H263  1  0.48561384  0.52868061  0.35909671  1
  H  H264  1  0.06903354  0.58378949  0.32514260  1
  O  O265  1  0.03486769  0.60499926  0.40730862  1
  C  C266  1  0.00035335  0.99760613  0.37189114  1
  C  C267  1  0.32905157  0.87131494  0.25149668  1
  H  H268  1  0.05943695  0.99771624  0.40405210  1
  H  H269  1  0.20475470  0.76352261  0.36906737  1
  C  C270  1  0.11414527  0.75789552  0.35773258  1
  O  O271  1  0.05627390  0.94349094  0.49614757  1
  O  O272  1  0.14176975  0.87319334  0.48124454  1
  C  C273  1  0.27422309  0.87774083  0.29479159  1
  H  H274  1  0.26858031  0.97327248  0.26852958  1
  H  H275  1  0.15148529  0.84721765  0.34352263  1
  H  H276  1  0.35831531  0.78294367  0.29829216  1
  C  C277  1  0.49098359  0.87173579  0.44806561  1
  H  H278  1  0.48669740  0.88191726  0.48634030  1
  C  C279  1  0.27342568  0.96005232  0.40210336  1
  H  H280  1  0.26225490  0.95603027  0.44105017  1
  C  C281  1  0.47442762  0.81537561  0.38130676  1
  C  C282  1  0.38504294  0.75315260  0.32238807  1
  C  C283  1  0.03637827  0.97231098  0.33239527  1
  C  C284  1  0.09340074  0.76561485  0.30880918  1
  C  C285  1  0.06250515  0.90501961  0.47207570  1
  C  C286  1  0.29851556  0.92394671  0.32557448  1
  H  H287  1  0.04573112  0.82292615  0.41783865  1
  C  C288  1  0.19517265  0.84227247  0.30964424  1
  H  H289  1  0.44332598  0.79540645  0.45254678  1
  H  H290  1  0.30322244  0.88512694  0.39039679  1
  C  C291  1  0.46748384  0.82548470  0.42979772  1
  C  C292  1  0.28987240  0.91983565  0.37459430  1
  C  C293  1  0.17311573  0.80020378  0.28299943  1
  C  C294  1  0.44521396  0.76431974  0.36383294  1
  H  H295  1  0.11846208  0.94770905  0.33267706  1
  C  C296  1  0.28529702  0.97050949  0.30652625  1
  C  C297  1  0.01191437  0.94296257  0.25122341  1
  H  H298  1  0.22531285  0.57770256  0.67502724  1
  C  C299  1  0.18704482  0.55708185  0.70245599  1
  H  H300  1  0.19524857  0.65434946  0.69561856  1
  C  C301  1  0.32806691  0.73484550  0.55717037  1
  O  O302  1  0.23120790  0.55173384  0.58374747  1
  H  H303  1  0.43554866  0.65945945  0.71513077  1
  C  C304  1  0.30392361  0.65339007  0.58938717  1
  C  C305  1  0.41302313  0.66199521  0.61629566  1
  C  C306  1  0.46158159  0.70985758  0.61775549  1
  C  C307  1  0.26689536  0.68884497  0.55779630  1
  H  H308  1  0.25244714  0.61827061  0.59152937  1
  C  C309  1  0.45821832  0.62320919  0.69700015  1
  O  O310  1  0.16884892  0.51132762  0.52196432  1
  C  C311  1  0.21344077  0.51378672  0.56428296  1
  C  C312  1  0.22795359  0.65955428  0.73107260  1
  C  C313  1  0.44721602  0.61972031  0.64852393  1
  C  C314  1  0.14187123  0.51191073  0.69473937  1
  H  H315  1  0.04122030  0.58298549  0.61173811  1
  H  H316  1  0.19416291  0.68284320  0.53281309  1
  H  H317  1  0.13385229  0.50082509  0.65725674  1
  C  C318  1  0.42335412  0.74510610  0.58581680  1
  C  C319  1  0.49371525  0.58292390  0.72367970  1
  C  C320  1  0.28211691  0.70453958  0.74431592  1
  H  H321  1  0.10934934  0.74755167  0.69201932  1
  O  O322  1  0.01486901  0.61762673  0.53194527  1
  C  C323  1  0.48296914  0.57667400  0.62620077  1
  H  H324  1  0.47611336  0.57119879  0.58830924  1
  C  C325  1  0.29659800  0.74412115  0.70704445  1
  H  H326  1  0.48169749  0.74929824  0.72542868  1
  H  H327  1  0.31495748  0.50140571  0.64852872  1
  Cu  Cu328  1  0.09374773  0.56845762  0.50055470  1
  C  C329  1  0.42774108  0.80236430  0.67215808  1
  O  O330  1  0.15425049  0.99952390  0.56042927  1
  C  C331  1  0.12846887  0.98107454  0.70435729  1
  O  O332  1  0.30109603  0.81509179  0.52593865  1
  H  H333  1  0.25035019  0.82891757  0.73594136  1
  O  O334  1  0.30853980  0.97058299  0.52499354  1
  C  C335  1  0.26423069  0.99138120  0.55879580  1
  O  O336  1  0.24007255  0.87946806  0.60153410  1
  H  H337  1  0.14032169  0.81774597  0.63280164  1
  C  C338  1  0.17865319  0.98726811  0.74796031  1
  O  O339  1  0.00889091  0.95351574  0.62182463  1
  O  O340  1  0.43213473  0.88667462  0.61484828  1
  Cu  Cu341  1  0.21289750  0.87371465  0.54115486  1
  H  H342  1  0.16707140  0.95188825  0.68272989  1
  C  C343  1  0.32863325  0.81945793  0.64821997  1
  C  C344  1  0.27062022  0.76854889  0.52408480  1
  H  H345  1  0.39831901  0.89753128  0.73077997  1
  C  C346  1  0.34401553  0.86583779  0.62276239  1
  C  C347  1  0.41443421  0.76314002  0.70235415  1
  C  C348  1  0.19479173  0.76282849  0.68301980  1
  C  C349  1  0.21153826  0.80044382  0.65288424  1
  Cu  Cu350  1  0.03563366  0.95213486  0.56110550  1
  H  H351  1  0.46030499  0.78208913  0.58767070  1
  H  H352  1  0.06472107  0.82246897  0.74327346  1
  O  O353  1  0.18679469  0.75738822  0.50011511  1
  H  H354  1  0.16915533  0.55338035  0.82471687  1
  C  C355  1  0.28219315  0.63112917  0.80880024  1
  H  H356  1  0.29434576  0.59993622  0.83238640  1
  H  H357  1  0.27063985  0.64342193  0.91205342  1
  C  C358  1  0.06814287  0.71796987  0.84049167  1
  C  C359  1  0.07561355  0.68346321  0.88015599  1
  C  C360  1  0.13080714  0.61711042  0.94760608  1
  C  C361  1  0.13498784  0.66864224  0.95829117  1
  C  C362  1  0.10059965  0.70136203  0.92564869  1
  H  H363  1  0.08454675  0.74025301  0.93386594  1
  C  C364  1  0.15871600  0.53873225  0.78834233  1
  C  C365  1  0.33147737  0.67749520  0.82016112  1
  C  C366  1  0.08133757  0.59920224  0.90650271  1
  C  C367  1  0.35202726  0.66365726  0.91000135  1
  C  C368  1  0.38293936  0.68614645  0.86777206  1
  C  C369  1  0.15602241  0.57946584  0.98047871  1
  C  C370  1  0.05518030  0.63286755  0.87183100  1
  C  C371  1  0.33373912  0.71682571  0.78675608  1
  O  O372  1  0.11604936  0.53608506  0.97508214  1
  H  H373  1  0.41640850  0.65257055  0.98016211  1
  C  C374  1  0.41669952  0.53501852  0.84716737  1
  C  C375  1  0.41367818  0.54131760  0.80049613  1
  H  H376  1  0.06796724  0.55981387  0.90228251  1
  C  C377  1  0.43053619  0.66989509  0.94683725  1
  C  C378  1  0.22884763  0.62288637  0.76523132  1
  C  C379  1  0.01136690  0.70964585  0.79600757  1
  H  H380  1  0.16542394  0.68040616  0.99447466  1
  H  H381  1  0.04100631  0.62194164  0.83698840  1
  C  C382  1  0.18738900  0.57232294  0.75075885  1
  O  O383  1  0.43293657  0.52557161  0.94415831  1
  C  C384  1  0.49464297  0.71260519  0.86378788  1
  H  H385  1  0.34832552  0.52144907  0.77862436  1
  C  C386  1  0.49223588  0.57472404  0.77876125  1
  C  C387  1  0.49470284  0.56437447  0.87289817  1
  C  C388  1  0.49789293  0.55964616  0.92417038  1
  C  C389  1  0.00467091  0.74951400  0.76391752  1
  H  H390  1  0.35483199  0.50969960  0.86337686  1
  H  H391  1  0.37641301  0.75357520  0.79173503  1
  C  C392  1  0.47177351  0.95041417  0.80298605  1
  O  O393  1  0.40378026  0.99132137  0.98700266  1
  C  C394  1  0.21473023  0.87768372  0.84898005  1
  C  C395  1  0.04604506  0.86609698  0.99160569  1
  H  H396  1  0.32347961  0.93375381  0.87688375  1
  C  C397  1  0.13301904  0.98659466  0.85620648  1
  C  C398  1  0.16315791  0.86527683  0.97429896  1
  C  C399  1  0.02062102  0.94595198  0.96323027  1
  C  C400  1  0.25599333  0.85365331  0.76647537  1
  C  C401  1  0.13100986  0.76314147  0.84653324  1
  H  H402  1  0.19010501  0.76709140  0.87856498  1
  C  C403  1  0.13135550  0.94671306  0.94126983  1
  H  H404  1  0.30483075  0.90777947  0.94180360  1
  C  C405  1  0.20302102  0.84627343  0.80821313  1
  C  C406  1  0.30171642  0.91236166  0.84530718  1
  C  C407  1  0.20932019  0.90606454  0.95134450  1
  C  C408  1  0.34414141  0.89139521  0.76225089  1
  H  H409  1  0.24899974  0.96195087  0.75962425  1
  H  H410  1  0.16957148  0.87347062  0.88349302  1
  C  C411  1  0.36631285  0.91609758  0.80263970  1
  C  C412  1  0.06153541  0.79415086  0.77081398  1
  C  C413  1  0.15518892  0.98728737  0.90602032  1
  H  H414  1  0.10028902  0.95478902  0.83820264  1
  C  C415  1  0.13085181  0.79885189  0.81166055  1
  H  H416  1  0.22895917  0.83453974  0.98111365  1
  O  O417  1  0.80995847  0.10246479  0.03169238  1
  C  C418  1  0.81146240  0.10429022  0.07561416  1
  O  O419  1  0.89792032  0.08664740  0.09685891  1
  C  C420  1  0.71276101  0.12763155  0.10203230  1
  H  H421  1  0.81378964  0.13029305  0.16474032  1
  C  C422  1  0.72458870  0.13836147  0.14973900  1
  H  H423  1  0.59948158  0.12818320  0.04167805  1
  C  C424  1  0.60923829  0.13867184  0.07744472  1
  C  C425  1  0.62960311  0.15750517  0.17339215  1
  H  H426  1  0.72320174  0.20836973  0.03294105  1
  H  H427  1  0.63474444  0.16572393  0.21062566  1
  H  H428  1  0.70603406  0.23383711  0.16741195  1
  Cu  Cu429  1  0.99868375  0.04524763  0.05987430  1
  H  H430  1  0.65989814  0.23210782  0.11073674  1
  O  O431  1  0.51954981  0.01735200  0.04212689  1
  Cu  Cu432  1  0.65301680  0.02945707  0.00255516  1
  C  C433  1  0.74066673  0.24542212  0.04618893  1
  C  C434  1  0.51564768  0.16180462  0.09929569  1
  H  H435  1  0.96055528  0.22475112  0.03276092  1
  C  C436  1  0.52507291  0.16935761  0.14720614  1
  H  H437  1  0.99506224  0.42248698  0.23074334  1
  H  H438  1  0.50080573  0.25181707  0.24518927  1
  C  C439  1  0.80869748  0.27950065  0.02038919  1
  C  C440  1  0.70823188  0.25966129  0.09029920  1
  H  H441  1  0.88965679  0.46879785  0.20564747  1
  H  H442  1  0.76064619  0.38785233  0.16864661  1
  H  H443  1  0.98670749  0.40555955  0.07697525  1
  C  C444  1  0.56123360  0.37144588  0.10773824  1
  H  H445  1  0.81203517  0.37738940  0.09305070  1
  H  H446  1  0.94650854  0.29216957  0.08772890  1
  H  H447  1  0.59757052  0.48736080  0.05827460  1
  H  H448  1  0.52722888  0.35728275  0.18048221  1
  C  C449  1  0.89265568  0.46991578  0.16841343  1
  H  H450  1  0.89823191  0.47629351  0.03209820  1
  C  C451  1  0.50298384  0.40598141  0.24916331  1
  C  C452  1  0.94724793  0.43202067  0.14419363  1
  H  H453  1  0.88060203  0.35347742  0.01592423  1
  C  C454  1  0.83190317  0.32726218  0.03648224  1
  H  H455  1  0.55640815  0.37594058  0.23647281  1
  C  C456  1  0.89845633  0.47531130  0.07169565  1
  O  O457  1  0.53417205  0.34962486  0.01937609  1
  C  C458  1  0.56374060  0.39322924  0.02598334  1
  C  C459  1  0.72685136  0.27060811  0.23446433  1
  C  C460  1  0.79849511  0.34112097  0.08145773  1
  C  C461  1  0.73483180  0.30758367  0.10987770  1
  C  C462  1  0.94495297  0.43572152  0.09641590  1
  C  C463  1  0.57236556  0.41018226  0.07353325  1
  H  H464  1  0.67996301  0.45114804  0.21883492  1
  C  C465  1  0.75397178  0.35610335  0.18806684  1
  C  C466  1  0.73087493  0.31374058  0.16189750  1
  C  C467  1  0.54999864  0.46877404  0.13089975  1
  C  C468  1  0.75630173  0.35834197  0.23637048  1
  C  C469  1  0.57898236  0.45988333  0.08551722  1
  C  C470  1  0.71746899  0.26861864  0.18545872  1
  C  C471  1  0.54291617  0.38539347  0.15422664  1
  C  C472  1  0.52567062  0.43534208  0.16900317  1
  H  H473  1  0.56559999  0.33404306  0.09555339  1
  Cu  Cu474  1  0.61501065  0.05670070  0.41250257  1
  O  O475  1  0.77363756  0.08085913  0.40731433  1
  C  C476  1  0.86884737  0.05675268  0.40892034  1
  O  O477  1  0.56747774  0.10112996  0.45569432  1
  C  C478  1  0.81949058  0.02555153  0.33005741  1
  H  H479  1  0.73672815  0.04928024  0.32928789  1
  C  C480  1  0.58190876  0.14964189  0.30883503  1
  O  O481  1  0.57607464  0.07297521  0.34937175  1
  C  C482  1  0.70476463  0.14585245  0.30007565  1
  H  H483  1  0.75355924  0.11556966  0.31389941  1
  H  H484  1  0.58446717  0.18889295  0.47869075  1
  C  C485  1  0.75397854  0.18645505  0.27867625  1
  C  C486  1  0.89431648  0.02459913  0.37037103  1
  C  C487  1  0.52478327  0.11232657  0.33576828  1
  O  O488  1  0.93765233  0.05928589  0.44440999  1
  H  H489  1  0.85117705  0.19212136  0.28051706  1
  C  C490  1  0.55503041  0.22482245  0.26304349  1
  C  C491  1  0.53840156  0.09309264  0.49593399  1
  H  H492  1  0.54392669  0.24485591  0.33786591  1
  C  C493  1  0.85531184  0.00110155  0.29153356  1
  C  C494  1  0.68300160  0.22559420  0.25975877  1
  C  C495  1  0.50681844  0.18573659  0.28722788  1
  H  H496  1  0.81248445  0.00775867  0.25825682  1
  C  C497  1  0.73100881  0.31444553  0.26016039  1
  C  C498  1  0.77553514  0.40238806  0.26678480  1
  H  H499  1  0.55341199  0.31384947  0.28059793  1
  C  C500  1  0.76260942  0.48974537  0.27649335  1
  C  C501  1  0.82991545  0.48590977  0.31769737  1
  H  H502  1  0.91643540  0.43092359  0.36394911  1
  H  H503  1  0.85240657  0.36182774  0.32184612  1
  H  H504  1  0.71550328  0.31629672  0.29806084  1
  C  C505  1  0.86439492  0.43893744  0.33199998  1
  C  C506  1  0.82894533  0.39674691  0.30989638  1
  C  C507  1  0.51053537  0.31762959  0.31276760  1
  C  C508  1  0.50329373  0.28046689  0.34500097  1
  C  C509  1  0.73335119  0.44851642  0.25060040  1
  H  H510  1  0.62813700  0.12578328  0.62755395  1
  C  C511  1  0.74522332  0.20611379  0.66009091  1
  C  C512  1  0.62037857  0.12900215  0.66650101  1
  C  C513  1  0.68081441  0.16840668  0.68852780  1
  C  C514  1  0.73095978  0.20421065  0.60982388  1
  H  H515  1  0.66559202  0.18212341  0.59247709  1
  C  C516  1  0.83620810  0.23412864  0.68170119  1
  H  H517  1  0.84741709  0.23332733  0.71892329  1
  C  C518  1  0.80487110  0.23490570  0.58488904  1
  C  C519  1  0.67082760  0.17484774  0.73815835  1
  H  H520  1  0.62108454  0.02965912  0.63040807  1
  H  H521  1  0.52085059  0.21236595  0.67382282  1
  C  C522  1  0.53909610  0.10004457  0.68985186  1
  C  C523  1  0.50505847  0.11113630  0.73727335  1
  C  C524  1  0.51473894  0.13552589  0.52817879  1
  H  H525  1  0.79470515  0.23536531  0.54769640  1
  H  H526  1  0.87659716  0.05384508  0.71154818  1
  C  C527  1  0.50854617  0.22007944  0.54084819  1
  C  C528  1  0.52188107  0.03209901  0.62987157  1
  O  O529  1  0.50740845  0.05198819  0.51075217  1
  O  O530  1  0.88373275  0.01747433  0.63109075  1
  C  C531  1  0.96623232  0.03671529  0.72138834  1
  H  H532  1  0.98279243  0.11168875  0.60642795  1
  C  C533  1  0.53279355  0.18255122  0.51111006  1
  H  H534  1  0.96408397  0.14237345  0.68826586  1
  C  C535  1  0.60690347  0.32569157  0.74965526  1
  C  C536  1  0.97743991  0.29418294  0.58189892  1
  C  C537  1  0.72307378  0.49741040  0.64791947  1
  C  C538  1  0.91039950  0.26279018  0.65554938  1
  O  O539  1  0.95415266  0.40903135  0.58520691  1
  C  C540  1  0.89733844  0.26336589  0.60670078  1
  H  H541  1  0.51645305  0.25894734  0.53466927  1
  C  C542  1  0.76510449  0.43647102  0.59374106  1
  C  C543  1  0.60030520  0.49361192  0.63552367  1
  Cu  Cu544  1  0.94696862  0.35540918  0.50457017  1
  H  H545  1  0.61100958  0.40281076  0.55965221  1
  C  C546  1  0.55984211  0.46157984  0.60177735  1
  H  H547  1  0.63803351  0.34914143  0.72142742  1
  C  C548  1  0.84618474  0.40203274  0.57467298  1
  C  C549  1  0.52399737  0.28730520  0.74266023  1
  C  C550  1  0.80767662  0.47013748  0.62716265  1
  C  C551  1  0.64425664  0.43148191  0.58178609  1
  O  O552  1  0.81862998  0.37183073  0.54185493  1
  H  H553  1  0.90006393  0.47267780  0.63768152  1
  O  O554  1  0.95813908  0.29556992  0.53647251  1
  H  H555  1  0.98530830  0.28361597  0.67080068  1
  C  C556  1  0.59208496  0.13407422  0.90614696  1
  C  C557  1  0.83910406  0.07008978  0.88380956  1
  C  C558  1  0.80532997  0.07986109  0.83823901  1
  C  C559  1  0.93498108  0.09284299  0.90522044  1
  C  C560  1  0.62962620  0.17981077  0.83531137  1
  C  C561  1  0.63790685  0.17515011  0.88271194  1
  H  H562  1  0.68276669  0.20439849  0.90210763  1
  C  C563  1  0.85397270  0.12054420  0.81571518  1
  H  H564  1  0.73422942  0.06154156  0.82120104  1
  C  C565  1  0.76105730  0.03664876  0.90851938  1
  O  O566  1  0.77603034  0.03089308  0.95074031  1
  O  O567  1  0.66809954  0.15640148  0.98023588  1
  C  C568  1  0.56088012  0.14586019  0.81185754  1
  C  C569  1  0.61455295  0.12516132  0.95473066  1
  H  H570  1  0.82089866  0.13159710  0.78157399  1
  H  H571  1  0.67273964  0.21145365  0.81984743  1
  O  O572  1  0.57695953  0.08679665  0.97358865  1
  C  C573  1  0.58204115  0.14607469  0.75891152  1
  O  O574  1  0.84774625  0.21791342  0.96729091  1
  O  O575  1  0.66757069  0.01989431  0.88803474  1
  C  C576  1  0.52411793  0.09892936  0.88080520  1
  C  C577  1  0.50605328  0.10560193  0.83384563  1
  Cu  Cu578  1  0.84008342  0.15423478  0.99240514  1
  C  C579  1  0.95726906  0.14226659  0.83659221  1
  H  H580  1  0.50434155  0.24252836  0.85432042  1
  H  H581  1  0.97904334  0.06652833  0.79214169  1
  H  H582  1  0.95588783  0.08471562  0.94090877  1
  C  C583  1  0.99625551  0.12779826  0.88107834  1
  H  H584  1  0.72193945  0.20248588  0.75825005  1
  O  O585  1  0.98333268  0.39146591  0.92214724  1
  C  C586  1  0.65782622  0.31081551  0.87841617  1
  O  O587  1  0.92902730  0.29169898  0.95454514  1
  C  C588  1  0.91770135  0.47191462  0.90467159  1
  Cu  Cu589  1  0.87910720  0.33953270  0.91525767  1
  C  C590  1  0.61372794  0.30319262  0.83220669  1
  C  C591  1  0.90032749  0.49972450  0.82793489  1
  O  O592  1  0.93029893  0.43997797  0.98034421  1
  C  C593  1  0.65389130  0.33148556  0.79354761  1
  C  C594  1  0.93346216  0.46198984  0.85828573  1
  C  C595  1  0.52907946  0.26489219  0.82404089  1
  H  H596  1  0.96449014  0.42620043  0.84426329  1
  H  H597  1  0.72499812  0.35897635  0.79707044  1
  Cu  Cu598  1  0.56247014  0.31598775  0.96822430  1
  O  O599  1  0.73313739  0.34511305  0.88782393  1
  O  O600  1  0.62078130  0.28548693  0.91224100  1
  C  C601  1  0.86659166  0.26156545  0.97901667  1
  C  C602  1  0.94572961  0.43352648  0.93904193  1
  O  O603  1  0.58195007  0.42184057  0.99249825  1
  C  C604  1  0.76858328  0.54815941  0.06928904  1
  O  O605  1  0.72030372  0.58401781  0.09325234  1
  Cu  Cu606  1  0.65906732  0.63670019  0.06257232  1
  O  O607  1  0.72874503  0.69006946  0.09639691  1
  C  C608  1  0.83254342  0.69988845  0.10570462  1
  O  O609  1  0.82263457  0.59648851  0.19442653  1
  C  C610  1  0.71934035  0.60763698  0.21046135  1
  H  H611  1  0.77555781  0.53193843  0.16361140  1
  H  H612  1  0.86396963  0.68281888  0.18968356  1
  O  O613  1  0.91066800  0.66668212  0.10542674  1
  Cu  Cu614  1  0.88311837  0.61123322  0.13704845  1
  C  C615  1  0.78898146  0.69543241  0.21152308  1
  C  C616  1  0.70458817  0.66054027  0.22610566  1
  O  O617  1  0.64269200  0.57718996  0.21386564  1
  O  O618  1  0.77110338  0.54778251  0.02890118  1
  O  O619  1  0.57816569  0.67842536  0.02379988  1
  C  C620  1  0.83350047  0.50880863  0.09742538  1
  C  C621  1  0.82850057  0.50547096  0.14517598  1
  C  C622  1  0.76495129  0.74259223  0.22445326  1
  C  C623  1  0.86974829  0.74823181  0.12490298  1
  C  C624  1  0.98666114  0.74582836  0.14185582  1
  H  H625  1  0.52946212  0.50647693  0.14226552  1
  C  C626  1  0.62913004  0.93715634  0.11578256  1
  H  H627  1  0.50967142  0.90119633  0.15951875  1
  H  H628  1  0.90827683  0.97634785  0.15410263  1
  C  C629  1  0.99738569  0.86869273  0.20105750  1
  O  O630  1  0.74122593  0.97635306  0.03316575  1
  O  O631  1  0.52846755  0.85705788  0.01914989  1
  H  H632  1  0.62389504  0.82641738  0.20102114  1
  O  O633  1  0.87931368  0.82825393  0.02749695  1
  C  C634  1  0.77326451  0.94378107  0.19449889  1
  Cu  Cu635  1  0.75791468  0.78084440  0.01571413  1
  C  C636  1  0.80217691  0.97522958  0.07051836  1
  C  C637  1  0.54317854  0.82803864  0.04974233  1
  C  C638  1  0.66532303  0.89045405  0.24410160  1
  O  O639  1  0.90726448  0.98904692  0.07448032  1
  C  C640  1  0.59197273  0.91948465  0.15831888  1
  H  H641  1  0.82970565  0.94822314  0.22641943  1
  O  O642  1  0.62033442  0.79325289  0.04449431  1
  C  C643  1  0.82837765  0.82658100  0.15793253  1
  C  C644  1  0.66296141  0.91920709  0.19930951  1
  H  H645  1  0.83090739  0.77133378  0.21609205  1
  H  H646  1  0.56192545  0.76150276  0.12135080  1
  C  C647  1  0.81640710  0.96177266  0.15357446  1
  H  H648  1  0.58226956  0.93331445  0.08128524  1
  C  C649  1  0.64534833  0.84079925  0.23630202  1
  H  H650  1  0.77318669  0.85775195  0.16308748  1
  C  C651  1  0.78729654  0.78712122  0.13224606  1
  C  C652  1  0.96833777  0.89526070  0.24169595  1
  C  C653  1  0.74422533  0.95794574  0.11309027  1
  C  C654  1  0.94129150  0.82299686  0.18047018  1
  H  H655  1  0.69587444  0.78503965  0.11667462  1
  C  C656  1  0.50495660  0.79149575  0.12890261  1
  C  C657  1  0.98939716  0.82411627  0.01777825  1
  H  H658  1  0.88154255  0.90808584  0.00304152  1
  C  C659  1  0.60036090  0.71702076  0.27531507  1
  C  C660  1  0.63883000  0.57302787  0.46450433  1
  O  O661  1  0.72722973  0.71968274  0.39796765  1
  C  C662  1  0.83224963  0.71929091  0.40381818  1
  H  H663  1  0.71634690  0.54297401  0.40091705  1
  C  C664  1  0.65886837  0.57187261  0.41620981  1
  O  O665  1  0.84573736  0.56740043  0.33420385  1
  C  C666  1  0.86966322  0.52678903  0.34637182  1
  O  O667  1  0.87888989  0.71441773  0.44585505  1
  Cu  Cu668  1  0.92089256  0.56181179  0.43958667  1
  O  O669  1  0.81677838  0.52373825  0.47387018  1
  C  C670  1  0.92205085  0.72763684  0.36532064  1
  O  O671  1  0.92056127  0.51807145  0.38698168  1
  H  H672  1  0.80482905  0.72469443  0.30417134  1
  C  C673  1  0.89419778  0.73432862  0.31765813  1
  H  H674  1  0.53563473  0.72503332  0.30217940  1
  H  H675  1  0.57341034  0.63737448  0.27314053  1
  C  C676  1  0.62017169  0.66885704  0.25905351  1
  H  H677  1  0.73349234  0.52585946  0.26677516  1
  H  H678  1  0.61080905  0.61140738  0.35352414  1
  C  C679  1  0.59974433  0.60737492  0.39130898  1
  C  C680  1  0.55198226  0.60040497  0.48761556  1
  C  C681  1  0.71562348  0.53883180  0.49314606  1
  C  C682  1  0.52000528  0.63960223  0.41434511  1
  H  H683  1  0.52626473  0.73872714  0.42699732  1
  C  C684  1  0.98241971  0.75161905  0.28870244  1
  O  O685  1  0.56968371  0.99002604  0.40376654  1
  C  C686  1  0.52799278  0.90692226  0.41616425  1
  C  C687  1  0.98342585  0.85145627  0.41059468  1
  C  C688  1  0.66990558  0.75349576  0.25544577  1
  C  C689  1  0.96670294  0.97418334  0.29208323  1
  O  O690  1  0.51628923  0.96530340  0.47346357  1
  H  H691  1  0.73253930  0.94099189  0.29860254  1
  C  C692  1  0.67265011  0.80698570  0.27193271  1
  H  H693  1  0.97502411  0.75605034  0.25039603  1
  H  H694  1  0.88117096  0.96464449  0.44903383  1
  C  C695  1  0.80706444  0.92095898  0.39272965  1
  C  C696  1  0.90176210  0.84094514  0.37788065  1
  C  C697  1  0.88747329  0.93094793  0.42817129  1
  C  C698  1  0.81446942  0.87684667  0.36681090  1
  C  C699  1  0.70936469  0.90384412  0.28942764  1
  C  C700  1  0.70966845  0.81886517  0.31766005  1
  C  C701  1  0.55065653  0.95678650  0.43251564  1
  C  C702  1  0.97663236  0.89638771  0.43574185  1
  H  H703  1  0.73524751  0.94783846  0.38429110  1
  H  H704  1  0.91516482  0.87904719  0.27024821  1
  H  H705  1  0.72880656  0.78907400  0.34296283  1
  H  H706  1  0.91121299  0.80862910  0.35775766  1
  C  C707  1  0.74155298  0.86836345  0.32354742  1
  H  H708  1  0.55568481  0.92866281  0.34457095  1
  C  C709  1  0.53309388  0.89778102  0.36809981  1
  H  H710  1  0.51027983  0.85019904  0.30957331  1
  C  C711  1  0.50724657  0.85324607  0.34902395  1
  H  H712  1  0.63841128  0.62516110  0.66049678  1
  H  H713  1  0.74008246  0.68878025  0.72489877  1
  C  C714  1  0.72551530  0.61717084  0.64836774  1
  C  C715  1  0.86825395  0.60762845  0.59029188  1
  H  H716  1  0.69090758  0.63258591  0.57357969  1
  C  C717  1  0.75246205  0.62041918  0.60188996  1
  C  C718  1  0.81054118  0.60551175  0.68228361  1
  H  H719  1  0.76117005  0.52467390  0.67216370  1
  C  C720  1  0.88301415  0.71763835  0.64045010  1
  H  H721  1  0.88413841  0.68650860  0.61636248  1
  C  C722  1  0.90755980  0.62244555  0.54382477  1
  C  C723  1  0.92970995  0.71168466  0.68540995  1
  C  C724  1  0.95074435  0.58720147  0.62188611  1
  C  C725  1  0.92437456  0.58630997  0.66926574  1
  O  O726  1  0.83373374  0.64280274  0.51785379  1
  O  O727  1  0.73533899  0.72243168  0.55902895  1
  Cu  Cu728  1  0.80604868  0.71266270  0.50294773  1
  O  O729  1  0.68995738  0.53163209  0.53257711  1
  C  C730  1  0.53263777  0.53869827  0.65313740  1
  C  C731  1  0.53642058  0.54035123  0.70258069  1
  H  H732  1  0.53747394  0.71647863  0.64212654  1
  C  C733  1  0.78426292  0.61013667  0.73319201  1
  H  H734  1  0.97051572  0.67504528  0.69407403  1
  H  H735  1  0.53677332  0.59278810  0.52498965  1
  C  C736  1  0.93041761  0.74984576  0.71906922  1
  H  H737  1  0.99428530  0.57543016  0.69402476  1
  H  H738  1  0.57801626  0.51243449  0.72396816  1
  C  C739  1  0.76359104  0.65954464  0.74960228  1
  H  H740  1  0.50953236  0.97930727  0.57187234  1
  C  C741  1  0.96609445  0.99488593  0.64434663  1
  H  H742  1  0.51237908  0.82119352  0.67037098  1
  C  C743  1  0.87014071  0.79406342  0.70753591  1
  H  H744  1  0.87525187  0.82558846  0.72979778  1
  C  C745  1  0.74747619  0.76222576  0.58536591  1
  O  O746  1  0.70013484  0.79848526  0.57332405  1
  H  H747  1  0.77970511  0.83611855  0.65632706  1
  C  C748  1  0.81430503  0.75968725  0.63126436  1
  C  C749  1  0.81576500  0.79868160  0.66453013  1
  H  H750  1  0.81650604  0.64221540  0.86957414  1
  C  C751  1  0.81574523  0.63305789  0.83186040  1
  C  C752  1  0.53417338  0.69764026  0.94650562  1
  C  C753  1  0.83498869  0.58578533  0.81331391  1
  C  C754  1  0.86176540  0.54428871  0.84716722  1
  H  H755  1  0.81063016  0.58975317  0.90883864  1
  C  C756  1  0.84307945  0.55476615  0.89554108  1
  C  C757  1  0.78272246  0.66812889  0.79703659  1
  H  H758  1  0.61930342  0.63164574  0.78379087  1
  H  H759  1  0.88360683  0.70108018  0.88020398  1
  C  C760  1  0.77259254  0.71786783  0.82028038  1
  C  C761  1  0.82829859  0.57467853  0.76480077  1
  H  H762  1  0.62111901  0.62319825  0.87537607  1
  C  C763  1  0.56452511  0.72013482  0.90264871  1
  C  C764  1  0.82946135  0.72926621  0.86371117  1
  C  C765  1  0.56207422  0.60649471  0.80473265  1
  C  C766  1  0.57058480  0.59868324  0.85334626  1
  O  O767  1  0.70918181  0.72238701  0.98570813  1
  H  H768  1  0.85445124  0.51596510  0.96126784  1
  H  H769  1  0.97145328  0.67449374  0.79134300  1
  C  C770  1  0.87328309  0.51609103  0.92412481  1
  C  C771  1  0.60895054  0.70009298  0.98690235  1
  O  O772  1  0.56373947  0.58486311  0.94779695  1
  H  H773  1  0.89648484  0.50107855  0.78960047  1
  H  H774  1  0.83551388  0.53696827  0.75276104  1
  H  H775  1  0.68171091  0.74721571  0.75696647  1
  H  H776  1  0.52607796  0.72456396  0.82787852  1
  H  H777  1  0.65445700  0.73478698  0.90047861  1
  C  C778  1  0.74323091  0.80893012  0.85605243  1
  C  C779  1  0.81365058  0.77492460  0.88089918  1
  O  O780  1  0.79574267  0.87518155  0.90535088  1
  C  C781  1  0.97265717  0.90581387  0.98750561  1
  C  C782  1  0.70347373  0.75217446  0.79490030  1
  C  C783  1  0.73858259  0.86126018  0.87281353  1
  O  O784  1  0.52120793  0.95680866  0.76650783  1
  O  O785  1  0.66508104  0.89163608  0.85431435  1
  C  C786  1  0.68876280  0.79841906  0.81383988  1
  Cu  Cu787  1  0.64651214  0.95803577  0.87244849  1
  H  H788  1  0.96866564  0.97797024  0.95362625  1
  H  H789  1  0.64450323  0.82627581  0.79302462  1
  H  H790  1  0.85658763  0.78602946  0.91389320  1
  O  O791  1  0.50425205  0.97266250  0.84049917  1
