# generated using pymatgen
data_CuH10(C9O2)2
_symmetry_space_group_name_H-M   'P 1'
_cell_length_a   28.57637181
_cell_length_b   11.96226072
_cell_length_c   27.96769146
_cell_angle_alpha   90.00000000
_cell_angle_beta   90.00000000
_cell_angle_gamma   90.00000000
_symmetry_Int_Tables_number   1
_chemical_formula_structural   CuH10(C9O2)2
_chemical_formula_sum   'Cu24 H240 C432 O96'
_cell_volume   9560.41999262
_cell_formula_units_Z   24
loop_
 _symmetry_equiv_pos_site_id
 _symmetry_equiv_pos_as_xyz
  1  'x, y, z'
loop_
 _atom_site_type_symbol
 _atom_site_label
 _atom_site_symmetry_multiplicity
 _atom_site_fract_x
 _atom_site_fract_y
 _atom_site_fract_z
 _atom_site_occupancy
  C  C0  1  0.08837437  0.09522317  0.06036978  1
  C  C1  1  0.05833140  0.13542819  0.09580823  1
  H  H2  1  0.15651788  0.36441789  0.10005219  1
  H  H3  1  0.15280323  0.14463218  0.11539291  1
  C  C4  1  0.04950390  0.25259999  0.10079918  1
  C  C5  1  0.07184474  0.33319466  0.07152165  1
  H  H6  1  0.06706611  0.42167678  0.07924614  1
  C  C7  1  0.18713900  0.30265911  0.09509476  1
  C  C8  1  0.18310519  0.18800508  0.10222644  1
  C  C9  1  0.10570602  0.17045821  0.02468393  1
  C  C10  1  0.09824074  0.28871064  0.03318017  1
  C  C11  1  0.02245578  0.28290955  0.14338784  1
  O  O12  1  0.01274502  0.38468220  0.15347695  1
  C  C13  1  0.22352629  0.12386590  0.09159311  1
  C  C14  1  0.12943369  0.07031066  0.24111253  1
  H  H15  1  0.04709789  0.08063881  0.12503368  1
  C  C16  1  0.22139886  0.40415856  0.19384121  1
  H  H17  1  0.14531930  0.38696530  0.19961226  1
  C  C18  1  0.17687835  0.42420333  0.21318290  1
  H  H19  1  0.22804552  0.34412766  0.16429575  1
  C  C20  1  0.22126396  0.00305625  0.10851535  1
  H  H21  1  0.20106607  0.11189734  0.01236646  1
  C  C22  1  0.23544392  0.46621461  0.06985624  1
  C  C23  1  0.23071985  0.34361063  0.07772457  1
  H  H24  1  0.24095115  0.09038911  0.17781594  1
  H  H25  1  0.05438062  0.05227039  0.24170567  1
  O  O26  1  0.00143424  0.20291897  0.16393253  1
  O  O27  1  0.08395986  0.49065242  0.24799361  1
  H  H28  1  0.09799206  0.00486843  0.05514106  1
  H  H29  1  0.11452859  0.34454458  0.00709867  1
  H  H30  1  0.00798304  0.07051886  0.00157035  1
  C  C31  1  0.32795925  0.48596433  0.15904912  1
  C  C32  1  0.42294148  0.34825418  0.00852120  1
  H  H33  1  0.38500846  0.20907829  0.08708467  1
  C  C34  1  0.25227144  0.09305204  0.21548323  1
  C  C35  1  0.37875855  0.47921303  0.15281880  1
  C  C36  1  0.41861577  0.27343044  0.24781273  1
  Cu  Cu37  1  0.49892553  0.36486060  0.06806669  1
  C  C38  1  0.41170215  0.06111281  0.12430651  1
  O  O39  1  0.46889479  0.35854743  0.01382992  1
  C  C40  1  0.40720681  0.41170919  0.18394448  1
  C  C41  1  0.26688817  0.16900124  0.07474042  1
  C  C42  1  0.38426876  0.35384555  0.22160802  1
  C  C43  1  0.43432296  0.17264519  0.22808283  1
  H  H44  1  0.42954633  0.16132726  0.18820653  1
  C  C45  1  0.45305529  0.04668036  0.09400053  1
  C  C46  1  0.33663797  0.36898840  0.23095464  1
  C  C47  1  0.34459917  0.15763376  0.15066880  1
  O  O48  1  0.39935478  0.29620491  0.03537454  1
  O  O49  1  0.45730236  0.10651490  0.05625042  1
  C  C50  1  0.30194584  0.09510771  0.22560968  1
  H  H51  1  0.32112942  0.23154354  0.14833454  1
  C  C52  1  0.30849088  0.43696809  0.19972699  1
  C  C53  1  0.38044211  0.14974660  0.11773914  1
  C  C54  1  0.25719770  0.47049290  0.21368478  1
  H  H55  1  0.44544376  0.40938110  0.17962844  1
  C  C56  1  0.34163338  0.08123514  0.18902358  1
  C  C57  1  0.27079599  0.28267941  0.06756927  1
  H  H58  1  0.29537711  0.11235159  0.06772960  1
  H  H59  1  0.30312994  0.32751832  0.05545604  1
  O  O60  1  0.03000006  0.35659662  0.30126748  1
  H  H61  1  0.11250260  0.34863421  0.31255751  1
  C  C62  1  0.11773020  0.27412300  0.28941373  1
  O  O63  1  0.02054543  0.38516221  0.45412356  1
  C  C64  1  0.03090517  0.25703643  0.28586479  1
  H  H65  1  0.19454006  0.28607901  0.28641668  1
  C  C66  1  0.16288188  0.23384181  0.27981104  1
  H  H67  1  0.21421111  0.12481388  0.33154600  1
  C  C68  1  0.24090374  0.11554620  0.30394112  1
  C  C69  1  0.07796642  0.21034024  0.27658419  1
  Cu  Cu70  1  0.02051617  0.48350973  0.26712623  1
  H  H71  1  0.22494510  0.09779822  0.39198812  1
  H  H72  1  0.24632239  0.12462501  0.48011886  1
  C  C73  1  0.08441912  0.10796301  0.25117714  1
  C  C74  1  0.22333223  0.10873888  0.25623330  1
  C  C75  1  0.17069261  0.13198933  0.25497380  1
  C  C76  1  0.31980103  0.09778081  0.27414891  1
  C  C77  1  0.26245971  0.11388744  0.40257744  1
  C  C78  1  0.42784276  0.29713851  0.29693467  1
  C  C79  1  0.27249124  0.13020930  0.45126390  1
  C  C80  1  0.45467875  0.11044190  0.30633249  1
  C  C81  1  0.28774574  0.09691192  0.31532232  1
  O  O82  1  0.46699660  0.03549287  0.38378686  1
  H  H83  1  0.37389970  0.11747645  0.35321520  1
  C  C84  1  0.34725870  0.11613187  0.38091730  1
  H  H85  1  0.39447626  0.15030868  0.44127525  1
  C  C86  1  0.35789262  0.13344067  0.42962988  1
  C  C87  1  0.33525948  0.38707012  0.47230124  1
  H  H88  1  0.32000535  0.32607382  0.26070784  1
  C  C89  1  0.44887195  0.21863634  0.32737784  1
  C  C90  1  0.44783930  0.08380087  0.25818126  1
  H  H91  1  0.35922812  0.09859360  0.27893593  1
  O  O92  1  0.38482311  0.33246832  0.38574132  1
  H  H93  1  0.31959920  0.31744426  0.45091887  1
  C  C94  1  0.29959936  0.10757896  0.36771880  1
  H  H95  1  0.48475864  0.20821275  0.46956714  1
  H  H96  1  0.41946037  0.38129115  0.31263809  1
  O  O97  1  0.44731377  0.41853214  0.41262305  1
  C  C98  1  0.40591422  0.39760437  0.41442849  1
  C  C99  1  0.37593116  0.44613006  0.45471884  1
  C  C100  1  0.46514240  0.01851187  0.33964709  1
  C  C101  1  0.32140543  0.13512784  0.46271101  1
  H  H102  1  0.45345516  0.23476245  0.36413872  1
  C  C103  1  0.17448954  0.14163637  0.60941448  1
  C  C104  1  0.13650866  0.37476877  0.62633343  1
  H  H105  1  0.12636341  0.28538625  0.62101086  1
  O  O106  1  0.04928197  0.29309065  0.59819145  1
  Cu  Cu107  1  0.05094684  0.20216644  0.54220743  1
  C  C108  1  0.14728758  0.12167449  0.65140880  1
  H  H109  1  0.11069782  0.09576660  0.64994104  1
  C  C110  1  0.18320490  0.40737797  0.63432421  1
  C  C111  1  0.14747272  0.13022868  0.56363076  1
  O  O112  1  0.10148210  0.11089624  0.56455746  1
  C  C113  1  0.22326782  0.15635444  0.61209071  1
  O  O114  1  0.05093803  0.23356234  0.68564075  1
  C  C115  1  0.16949005  0.14166208  0.69428041  1
  C  C116  1  0.03762527  0.27971499  0.72462140  1
  O  O117  1  0.16655164  0.14435601  0.52632993  1
  H  H118  1  0.20926640  0.34274070  0.63644578  1
  C  C119  1  0.21835882  0.17613206  0.69686490  1
  H  H120  1  0.08985901  0.08904789  0.73308489  1
  H  H121  1  0.15285822  0.12559120  0.72713115  1
  C  C122  1  0.05454678  0.41254655  0.60147137  1
  H  H123  1  0.19875595  0.42323766  0.71380909  1
  C  C124  1  0.10041269  0.45686130  0.61823875  1
  O  O125  1  0.02260370  0.47306210  0.59507718  1
  H  H126  1  0.24062934  0.16609113  0.57776882  1
  H  H127  1  0.11565961  0.46879394  0.70240786  1
  C  C128  1  0.18193136  0.47873344  0.74046109  1
  C  C129  1  0.23742942  0.20565469  0.74595012  1
  Cu  Cu130  1  0.01478737  0.19076366  0.62900503  1
  O  O131  1  0.00644343  0.34947995  0.72542270  1
  C  C132  1  0.24556284  0.18316246  0.65589299  1
  H  H133  1  0.24780464  0.47885642  0.56522025  1
  C  C134  1  0.33270296  0.16429068  0.51299273  1
  H  H135  1  0.28319478  0.20881325  0.65518822  1
  H  H136  1  0.26706938  0.40070234  0.71976468  1
  C  C137  1  0.45148572  0.19092768  0.62668853  1
  O  O138  1  0.47839776  0.04438259  0.51726704  1
  C  C139  1  0.31483345  0.41841526  0.51521601  1
  C  C140  1  0.36094167  0.35883150  0.72284016  1
  H  H141  1  0.32405156  0.42055552  0.65955520  1
  O  O142  1  0.48358954  0.13182263  0.64391247  1
  O  O143  1  0.37519817  0.18231737  0.52578273  1
  H  H144  1  0.28650048  0.36796197  0.53085931  1
  Cu  Cu145  1  0.42106003  0.09024059  0.54548523  1
  H  H146  1  0.46280576  0.20110807  0.71932336  1
  C  C147  1  0.40251204  0.30336214  0.73736214  1
  H  H148  1  0.37923231  0.32773238  0.60365940  1
  C  C149  1  0.42184369  0.25549675  0.65780512  1
  O  O150  1  0.30109357  0.16043508  0.54198052  1
  O  O151  1  0.44638121  0.20211923  0.58115107  1
  C  C152  1  0.38314876  0.32117197  0.64126036  1
  C  C153  1  0.43093059  0.24603135  0.70722842  1
  H  H154  1  0.30403431  0.12115850  0.72838987  1
  C  C155  1  0.35296071  0.36876246  0.67314244  1
  C  C156  1  0.20994279  0.25541769  0.78227389  1
  C  C157  1  0.20096480  0.34437785  0.86432691  1
  C  C158  1  0.15847666  0.40157412  0.85262657  1
  H  H159  1  0.14359518  0.39721676  0.81598920  1
  C  C160  1  0.08237625  0.26728168  0.85028665  1
  H  H161  1  0.08180549  0.32219508  0.88091899  1
  C  C162  1  0.21534020  0.34941029  0.91383513  1
  C  C163  1  0.11242994  0.15610148  0.93693155  1
  C  C164  1  0.06190829  0.30573761  0.80926256  1
  C  C165  1  0.10973200  0.17036761  0.84750881  1
  C  C166  1  0.13390100  0.13699762  0.89304417  1
  C  C167  1  0.11390974  0.10492991  0.80468331  1
  H  H168  1  0.07675137  0.18800602  0.93343998  1
  C  C169  1  0.22955916  0.27917269  0.82881561  1
  C  C170  1  0.17908025  0.08252949  0.89296773  1
  C  C171  1  0.20382199  0.06385722  0.93602790  1
  C  C172  1  0.19211514  0.40387870  0.94998886  1
  H  H173  1  0.19642572  0.05603764  0.85963311  1
  C  C174  1  0.18162010  0.10452220  0.97864902  1
  C  C175  1  0.13436060  0.13892366  0.98080529  1
  C  C176  1  0.15035532  0.46253433  0.93600114  1
  H  H177  1  0.17431659  0.28001060  0.77523585  1
  C  C178  1  0.13489863  0.46159706  0.88735686  1
  C  C179  1  0.06381772  0.24092389  0.76706175  1
  H  H180  1  0.04121959  0.38566866  0.81159030  1
  C  C181  1  0.08975349  0.14194258  0.76409698  1
  H  H182  1  0.20390048  0.40080658  0.98724179  1
  H  H183  1  0.13565470  0.02744849  0.80287165  1
  H  H184  1  0.24646520  0.30539777  0.92332449  1
  C  C185  1  0.25168344  0.01163066  0.94741396  1
  C  C186  1  0.42354121  0.46308308  0.93390224  1
  C  C187  1  0.35094568  0.48751403  0.88880406  1
  C  C188  1  0.32793585  0.49939806  0.83950067  1
  H  H189  1  0.42584725  0.22976087  0.91338724  1
  C  C190  1  0.28432737  0.16781369  0.75526020  1
  H  H191  1  0.28546604  0.44059266  0.92520009  1
  C  C192  1  0.32469066  0.43473670  0.92705090  1
  H  H193  1  0.46123680  0.47980489  0.93853478  1
  H  H194  1  0.39533874  0.45489325  0.80885073  1
  C  C195  1  0.41094949  0.18190712  0.88220461  1
  C  C196  1  0.47018336  0.03308434  0.89514603  1
  H  H197  1  0.36506892  0.02230193  0.76785644  1
  C  C198  1  0.30302383  0.18533905  0.80138592  1
  O  O199  1  0.49397593  0.04926915  0.76336994  1
  H  H200  1  0.36727038  0.01581265  0.91988186  1
  C  C201  1  0.35657881  0.45493269  0.80226944  1
  C  C202  1  0.29182721  0.02088687  0.91769979  1
  C  C203  1  0.41744813  0.03241559  0.82427332  1
  O  O204  1  0.48400756  0.08569169  0.93272510  1
  C  C205  1  0.34857567  0.38600906  0.96522760  1
  H  H206  1  0.41069676  0.29381283  0.77626505  1
  C  C207  1  0.37743503  0.06774486  0.80014482  1
  C  C208  1  0.36948154  0.21240543  0.86224357  1
  C  C209  1  0.27525560  0.24013413  0.83767090  1
  H  H210  1  0.35237319  0.28810536  0.87624005  1
  C  C211  1  0.35062686  0.15383475  0.82084874  1
  H  H212  1  0.29011561  0.05382952  0.88102870  1
  C  C213  1  0.43361618  0.08343074  0.86619708  1
  C  C214  1  0.39841436  0.39941029  0.96643271  1
  H  H215  1  0.29357355  0.25903504  0.87122734  1
  C  C216  1  0.33089622  0.41494941  0.76150917  1
  H  H217  1  0.32909150  0.33850798  0.99120933  1
  C  C218  1  0.25767295  0.49702204  0.78810672  1
  H  H219  1  0.48811844  0.47993005  0.78036798  1
  Cu  Cu220  1  0.47154388  0.03966692  0.99356761  1
  C  C221  1  0.28385734  0.43524500  0.75253782  1
  C  C222  1  0.08514287  0.79725024  0.11695217  1
  H  H223  1  0.08902227  0.83452947  0.07964438  1
  C  C224  1  0.12088845  0.80939141  0.15063105  1
  C  C225  1  0.17014106  0.85363911  0.13816270  1
  C  C226  1  0.04343607  0.74755143  0.13238465  1
  H  H227  1  0.01331957  0.73335208  0.10720183  1
  C  C228  1  0.04080746  0.70599256  0.17869100  1
  C  C229  1  0.11686826  0.78217705  0.19999900  1
  Cu  Cu230  1  0.17450604  0.63968475  0.04274852  1
  C  C231  1  0.07561847  0.73123032  0.21239104  1
  C  C232  1  0.21038790  0.78707186  0.14936907  1
  H  H233  1  0.20666715  0.70268995  0.16522501  1
  H  H234  1  0.14585778  0.79302943  0.22469510  1
  C  C235  1  0.17563075  0.95661162  0.11390232  1
  C  C236  1  0.00029233  0.64324722  0.19274087  1
  O  O237  1  0.13073795  0.53959623  0.01211778  1
  H  H238  1  0.14476411  0.99834167  0.09839418  1
  O  O239  1  0.19677967  0.52378168  0.08037070  1
  O  O240  1  0.15692050  0.76632086  0.01204186  1
  C  C241  1  0.16961802  0.50826298  0.24744199  1
  H  H242  1  0.22490294  0.94184532  0.01661297  1
  H  H243  1  0.13659972  0.99191626  0.22296179  1
  C  C244  1  0.38480540  0.91191906  0.00507600  1
  H  H245  1  0.45685235  0.99851206  0.24637390  1
  O  O246  1  0.48528472  0.98594611  0.10843578  1
  C  C247  1  0.29771299  0.91453692  0.00928847  1
  H  H248  1  0.29914102  0.86759945  0.04305447  1
  O  O249  1  0.27102230  0.50698975  0.05276559  1
  C  C250  1  0.36996526  0.98442443  0.19128869  1
  H  H251  1  0.34609129  0.77535026  0.10227312  1
  C  C252  1  0.40511058  0.60221013  0.02948543  1
  H  H253  1  0.36725002  0.92486407  0.22114417  1
  H  H254  1  0.41596028  0.72652045  0.15470072  1
  C  C255  1  0.37550912  0.73025574  0.22098908  1
  C  C256  1  0.40613835  0.97326013  0.15930923  1
  H  H257  1  0.30458264  0.52495588  0.13148497  1
  O  O258  1  0.38598650  0.87233026  0.04343991  1
  C  C259  1  0.45264966  0.62393023  0.03587061  1
  C  C260  1  0.25560024  0.83381938  0.14556448  1
  C  C261  1  0.29390753  0.78279943  0.21764655  1
  C  C262  1  0.38106248  0.56567964  0.07055186  1
  C  C263  1  0.29999847  0.78905635  0.16786314  1
  H  H264  1  0.29580325  0.98840236  0.12557031  1
  H  H265  1  0.46981453  0.56668921  0.15594058  1
  H  H266  1  0.34169317  0.55471694  0.06633800  1
  H  H267  1  0.43032260  0.90054350  0.15800916  1
  C  C268  1  0.38000778  0.73472447  0.17015406  1
  H  H269  1  0.26051817  0.80583117  0.23432854  1
  C  C270  1  0.45188669  0.57791287  0.12135938  1
  C  C271  1  0.40373585  0.53749357  0.11272405  1
  C  C272  1  0.34320346  0.76650520  0.14242169  1
  C  C273  1  0.47418466  0.62016781  0.08181876  1
  C  C274  1  0.26113541  0.94189125  0.12451740  1
  C  C275  1  0.33424164  0.75795469  0.24441728  1
  O  O276  1  0.45500477  0.69716201  0.23282053  1
  O  O277  1  0.12172092  0.60926174  0.29516520  1
  H  H278  1  0.19717358  0.63744283  0.29419221  1
  C  C279  1  0.20578424  0.56884366  0.26959796  1
  C  C280  1  0.12165134  0.54081532  0.26509135  1
  H  H281  1  0.06888541  0.70252165  0.25006148  1
  C  C282  1  0.39982823  0.52342228  0.48219197  1
  H  H283  1  0.32952244  0.75850892  0.28255550  1
  O  O284  1  0.41360529  0.71190228  0.29882056  1
  Cu  Cu285  1  0.45607197  0.77738336  0.34191957  1
  H  H286  1  0.28113920  0.59579635  0.26806309  1
  C  C287  1  0.47643252  0.76314237  0.44162698  1
  C  C288  1  0.25128919  0.55099610  0.25252952  1
  O  O289  1  0.45837530  0.85806804  0.44605919  1
  C  C290  1  0.48933844  0.70230451  0.48445369  1
  O  O291  1  0.48661315  0.73001505  0.39873841  1
  O  O292  1  0.46972229  0.92246222  0.32223646  1
  H  H293  1  0.43168532  0.56368089  0.47237321  1
  Cu  Cu294  1  0.49820443  0.97551302  0.43595852  1
  C  C295  1  0.41795178  0.70947296  0.25229401  1
  C  C296  1  0.10421001  0.85646232  0.66470387  1
  H  H297  1  0.19100806  0.91328920  0.64251201  1
  C  C298  1  0.18780933  0.90338421  0.67941407  1
  H  H299  1  0.13028471  0.94538741  0.60153440  1
  C  C300  1  0.10456204  0.88711736  0.61495734  1
  C  C301  1  0.14465202  0.88209798  0.69823525  1
  C  C302  1  0.06552570  0.79574716  0.68430807  1
  H  H303  1  0.06769058  0.86760421  0.54854905  1
  C  C304  1  0.06905067  0.84423137  0.58577861  1
  H  H305  1  0.16465934  0.69479297  0.63384131  1
  H  H306  1  0.08461339  0.63768693  0.61815379  1
  C  C307  1  0.22668083  0.91048520  0.71090969  1
  C  C308  1  0.15774020  0.60677401  0.63020604  1
  C  C309  1  0.03029834  0.78987098  0.60747823  1
  C  C310  1  0.11216418  0.57000288  0.62269262  1
  C  C311  1  0.02734216  0.76527197  0.65720015  1
  H  H312  1  0.06650129  0.78169135  0.72259251  1
  O  O313  1  0.04829472  0.54462978  0.71597374  1
  C  C314  1  0.19331253  0.52315705  0.63353325  1
  C  C315  1  0.24387727  0.56174969  0.63556848  1
  H  H316  1  0.24480549  0.94488807  0.61667215  1
  O  O317  1  0.01570320  0.99699576  0.71697513  1
  C  C318  1  0.13848434  0.86789114  0.74834118  1
  C  C319  1  0.13498390  0.50363419  0.73109782  1
  C  C320  1  0.33902600  0.50341404  0.54210912  1
  H  H321  1  0.31879112  0.96321983  0.57781477  1
  H  H322  1  0.25235709  0.64343542  0.70423619  1
  O  O323  1  0.40983391  0.94911853  0.57217026  1
  C  C324  1  0.31830669  0.62966603  0.66410308  1
  H  H325  1  0.46350061  0.82542484  0.53417432  1
  C  C326  1  0.34475806  0.59188591  0.62353240  1
  C  C327  1  0.49254535  0.67929600  0.56974693  1
  H  H328  1  0.38283360  0.59973358  0.61974016  1
  H  H329  1  0.48388051  0.71010819  0.60533779  1
  C  C330  1  0.31989774  0.95436248  0.61613935  1
  O  O331  1  0.44416025  0.91524636  0.64055482  1
  H  H332  1  0.39188733  0.91762126  0.71162425  1
  C  C333  1  0.26626075  0.51909743  0.59311360  1
  C  C334  1  0.27380345  0.93180462  0.68872664  1
  C  C335  1  0.42314805  0.72714656  0.73424115  1
  C  C336  1  0.35908482  0.93341464  0.69271875  1
  C  C337  1  0.34578926  0.67527033  0.70522541  1
  C  C338  1  0.31533995  0.92962285  0.71592287  1
  C  C339  1  0.48190999  0.74459545  0.53003191  1
  H  H340  1  0.46171242  0.74129323  0.72660097  1
  C  C341  1  0.40696045  0.93226606  0.61733356  1
  H  H342  1  0.41032161  0.68054344  0.65928825  1
  C  C343  1  0.27703875  0.94564372  0.63784937  1
  C  C344  1  0.36312919  0.94067859  0.64258630  1
  C  C345  1  0.38227814  0.55658895  0.52733007  1
  C  C346  1  0.31542159  0.53888664  0.58805209  1
  H  H347  1  0.39742659  0.62563993  0.54670454  1
  C  C348  1  0.26924652  0.61864631  0.67221542  1
  C  C349  1  0.39469387  0.69380677  0.69596182  1
  C  C350  1  0.16672214  0.86281882  0.83528971  1
  C  C351  1  0.11988656  0.86260647  0.85072119  1
  C  C352  1  0.14095423  0.81808273  0.93312931  1
  C  C353  1  0.10755866  0.84130872  0.89843329  1
  C  C354  1  0.18796590  0.81541121  0.91706039  1
  C  C355  1  0.20176316  0.83703932  0.87035857  1
  H  H356  1  0.07105212  0.83842122  0.90705875  1
  C  C357  1  0.17546815  0.87135427  0.78113644  1
  H  H358  1  0.11618568  0.67981759  0.82792899  1
  C  C359  1  0.13541476  0.62470200  0.80412504  1
  C  C360  1  0.18133596  0.59797744  0.81196850  1
  H  H361  1  0.20087667  0.63252884  0.84299555  1
  H  H362  1  0.21607622  0.80019615  0.94335766  1
  O  O363  1  0.08621060  0.57653382  0.95109905  1
  C  C364  1  0.12500951  0.79306405  0.98140753  1
  H  H365  1  0.08964628  0.86680960  0.82654143  1
  C  C366  1  0.22063425  0.89610850  0.76104569  1
  O  O367  1  0.03902903  0.64187596  0.78311830  1
  C  C368  1  0.20640330  0.52637606  0.78024249  1
  C  C369  1  0.11464145  0.58008852  0.76340840  1
  H  H370  1  0.10379206  0.84944446  0.76283806  1
  H  H371  1  0.23806932  0.83082533  0.85637655  1
  C  C372  1  0.12098768  0.52395622  0.96857585  1
  O  O373  1  0.00363779  0.93207877  0.93104173  1
  Cu  Cu374  1  0.04086054  0.66847074  0.98467264  1
  O  O375  1  0.08380589  0.79668030  0.99519296  1
  C  C376  1  0.06408760  0.59694903  0.75394702  1
  H  H377  1  0.10131724  0.50509901  0.87921861  1
  O  O378  1  0.00483313  0.53593474  0.99660205  1
  C  C379  1  0.33814507  0.94074079  0.98357223  1
  H  H380  1  0.25254804  0.90662850  0.78495244  1
  H  H381  1  0.25719286  0.54086670  0.86446332  1
  C  C382  1  0.25634739  0.95934679  0.99304118  1
  O  O383  1  0.45746361  0.67545180  0.95565877  1
  O  O384  1  0.49259266  0.94640371  0.88446421  1
  C  C385  1  0.44243736  0.76218897  0.81682280  1
  H  H386  1  0.38837636  0.60745119  0.99341271  1
  C  C387  1  0.40032260  0.50062487  0.89144216  1
  C  C388  1  0.47911843  0.66375466  0.99381596  1
  H  H389  1  0.42102251  0.52845176  0.85935292  1
  O  O390  1  0.43648626  0.75735461  0.86310333  1
  C  C391  1  0.32867271  0.69085770  0.75262047  1
  H  H392  1  0.34478230  0.72921579  0.82869316  1
  C  C393  1  0.27800723  0.51355139  0.83296762  1
  C  C394  1  0.35595946  0.72850100  0.79055383  1
  H  H395  1  0.29222893  0.67070828  0.76193577  1
  H  H396  1  0.43428306  0.96177565  0.80683701  1
  O  O397  1  0.48037117  0.77967066  0.79971985  1
  C  C398  1  0.40320791  0.73952541  0.77887199  1
  H  H399  1  0.31260853  0.91636643  0.75475513  1
  Cu  Cu400  1  0.47123674  0.81000054  0.91851722  1
  C  C401  1  0.33491460  0.99488282  0.93900260  1
  O  O402  1  0.42385814  0.93410533  0.98146380  1
  O  O403  1  0.58812372  0.09643454  0.18227492  1
  Cu  Cu404  1  0.53704471  0.05037121  0.14534441  1
  C  C405  1  0.63131729  0.11621935  0.17241121  1
  Cu  Cu406  1  0.63237190  0.30271669  0.10781613  1
  O  O407  1  0.64340789  0.15808031  0.13325836  1
  C  C408  1  0.66588804  0.08188961  0.20784678  1
  C  C409  1  0.52976278  0.29847588  0.16452789  1
  C  C410  1  0.55029674  0.33435947  0.20870049  1
  O  O411  1  0.52602313  0.37155524  0.13040917  1
  O  O412  1  0.69257137  0.33013742  0.09065333  1
  C  C413  1  0.71375252  0.10031243  0.19538847  1
  C  C414  1  0.72084804  0.37686855  0.11914143  1
  H  H415  1  0.71782560  0.14407318  0.16071671  1
  H  H416  1  0.67160323  0.43584717  0.21106507  1
  C  C417  1  0.70231451  0.44935384  0.23435962  1
  C  C418  1  0.56303950  0.44798500  0.21339760  1
  O  O419  1  0.61379332  0.43955668  0.08384683  1
  C  C420  1  0.59543539  0.45484274  0.04368806  1
  O  O421  1  0.51207996  0.20221033  0.15901828  1
  H  H422  1  0.55826200  0.49959276  0.18206962  1
  C  C423  1  0.56187211  0.26182358  0.24716179  1
  H  H424  1  0.55017166  0.17461682  0.24386803  1
  H  H425  1  0.68502111  0.47434631  0.04024472  1
  O  O426  1  0.55118378  0.44622692  0.03880144  1
  H  H427  1  0.74425943  0.17200930  0.08847052  1
  C  C428  1  0.74945530  0.07203025  0.22704772  1
  O  O429  1  0.53658791  0.07108177  0.00608131  1
  O  O430  1  0.71412699  0.47199711  0.13602959  1
  C  C431  1  0.67151868  0.48536749  0.00354380  1
  C  C432  1  0.62169485  0.48793987  0.00153797  1
  H  H433  1  0.82361047  0.35331670  0.02306483  1
  O  O434  1  0.93088249  0.33879660  0.23369091  1
  H  H435  1  0.88483333  0.46297335  0.06356706  1
  C  C436  1  0.78537514  0.34970315  0.17533236  1
  C  C437  1  0.80737594  0.14718006  0.13056859  1
  C  C438  1  0.99149358  0.00574902  0.02437154  1
  H  H439  1  0.84177692  0.31174699  0.22329494  1
  C  C440  1  0.91312534  0.41064899  0.20654452  1
  C  C441  1  0.83526114  0.18902398  0.16791308  1
  C  C442  1  0.88753662  0.44151513  0.02453988  1
  H  H443  1  0.89857105  0.11514457  0.10375431  1
  Cu  Cu444  1  0.96426817  0.47165607  0.12531010  1
  H  H445  1  0.81755706  0.06636836  0.11663819  1
  C  C446  1  0.85303629  0.38305154  0.00210558  1
  Cu  Cu447  1  0.96497024  0.21443000  0.21480512  1
  H  H448  1  0.77525387  0.42158981  0.19706825  1
  H  H449  1  0.98066322  0.11987514  0.08364163  1
  C  C450  1  0.87879368  0.12049703  0.18136173  1
  C  C451  1  0.82426225  0.29173122  0.19027986  1
  C  C452  1  0.92998419  0.46849170  0.00179366  1
  C  C453  1  0.97873092  0.02968753  0.07215067  1
  C  C454  1  0.75897590  0.30539861  0.13785859  1
  C  C455  1  0.90513846  0.08547464  0.13992432  1
  C  C456  1  0.76865617  0.20312655  0.11435772  1
  C  C457  1  0.88639812  0.07280598  0.22788495  1
  H  H458  1  0.78590476  0.08467674  0.21643080  1
  O  O459  1  0.91436009  0.39833899  0.16034571  1
  C  C460  1  0.59550480  0.32439154  0.46002754  1
  C  C461  1  0.70797669  0.12971170  0.40744767  1
  C  C462  1  0.62507018  0.38188718  0.42099850  1
  H  H463  1  0.56877931  0.36772776  0.37064119  1
  H  H464  1  0.70326329  0.29083762  0.33639281  1
  C  C465  1  0.66334854  0.14917067  0.38512499  1
  H  H466  1  0.59891197  0.23545651  0.31331150  1
  C  C467  1  0.58903533  0.29682432  0.28586327  1
  C  C468  1  0.60359609  0.39530157  0.37587564  1
  C  C469  1  0.60315285  0.41163812  0.28988513  1
  C  C470  1  0.67378560  0.41644630  0.42986510  1
  C  C471  1  0.63202831  0.42972774  0.33608544  1
  C  C472  1  0.54674769  0.30735808  0.45176704  1
  H  H473  1  0.68992006  0.39904291  0.46614283  1
  C  C474  1  0.69831680  0.46817215  0.39283537  1
  H  H475  1  0.66231128  0.20131777  0.35303467  1
  H  H476  1  0.52786125  0.36271493  0.42634115  1
  C  C477  1  0.52252129  0.22255238  0.47585368  1
  C  C478  1  0.73894618  0.25154716  0.34422629  1
  C  C479  1  0.71190034  0.06986932  0.45057831  1
  C  C480  1  0.67721102  0.47183194  0.34637599  1
  C  C481  1  0.61691989  0.26433598  0.49888094  1
  C  C482  1  0.62753852  0.07875284  0.39904033  1
  C  C483  1  0.58989019  0.48385240  0.25234981  1
  H  H484  1  0.74694060  0.06403735  0.46799205  1
  C  C485  1  0.65248134  0.03536708  0.25323840  1
  H  H486  1  0.70097424  0.49752641  0.31716828  1
  C  C487  1  0.67518123  0.00698316  0.46711657  1
  H  H488  1  0.59443414  0.07516555  0.37996250  1
  H  H489  1  0.61491771  0.02108201  0.25921597  1
  C  C490  1  0.73622038  0.00546225  0.26828360  1
  C  C491  1  0.63283884  0.00882755  0.43830563  1
  H  H492  1  0.71213861  0.27424757  0.25843944  1
  C  C493  1  0.72499682  0.36146426  0.26003774  1
  C  C494  1  0.75001150  0.17303931  0.38123349  1
  C  C495  1  0.75111343  0.49922219  0.40673232  1
  O  O496  1  0.92243362  0.49981253  0.44641249  1
  C  C497  1  0.76344652  0.39023073  0.28776733  1
  O  O498  1  0.99238836  0.20890198  0.27797543  1
  C  C499  1  0.92309672  0.18466877  0.46318568  1
  H  H500  1  0.91265161  0.45352467  0.29607154  1
  H  H501  1  0.77210236  0.33174567  0.40805291  1
  C  C502  1  0.77866350  0.29928579  0.32273754  1
  H  H503  1  0.92320785  0.25927037  0.32567260  1
  C  C504  1  0.79654573  0.14671257  0.39231648  1
  H  H505  1  0.86355575  0.10476625  0.25640683  1
  C  C506  1  0.99598874  0.30640432  0.47215264  1
  H  H507  1  0.85638106  0.33213197  0.31633972  1
  H  H508  1  0.98689043  0.32495655  0.37452778  1
  C  C509  1  0.88369497  0.18713653  0.38735778  1
  C  C510  1  0.95977297  0.27614527  0.39206816  1
  C  C511  1  0.83482990  0.19913641  0.36973343  1
  H  H512  1  0.92165222  0.06249555  0.33442104  1
  C  C513  1  0.78382603  0.41433058  0.41367890  1
  H  H514  1  0.80433738  0.08477609  0.41844107  1
  C  C515  1  0.92212646  0.24363527  0.36445787  1
  H  H516  1  0.85706616  0.35890472  0.42545988  1
  H  H517  1  0.85765863  0.10701005  0.45624967  1
  C  C518  1  0.88524791  0.15601576  0.43717100  1
  C  C519  1  0.83124594  0.42733746  0.42126988  1
  C  C520  1  0.82741313  0.28038615  0.33300342  1
  C  C521  1  0.95904655  0.25361754  0.44253856  1
  C  C522  1  0.63607038  0.05656140  0.61560268  1
  C  C523  1  0.67724433  0.10373681  0.59601623  1
  H  H524  1  0.56736425  0.11062528  0.63835112  1
  C  C525  1  0.68705598  0.21876818  0.58908990  1
  C  C526  1  0.60275428  0.13635496  0.62556259  1
  C  C527  1  0.65348626  0.29914195  0.60209883  1
  C  C528  1  0.61145532  0.25329240  0.62022455  1
  H  H529  1  0.65855703  0.38698352  0.59485101  1
  C  C530  1  0.57574897  0.34837360  0.63010006  1
  H  H531  1  0.54548895  0.36645430  0.55676313  1
  H  H532  1  0.59630115  0.33476234  0.70505799  1
  C  C533  1  0.54807155  0.39808947  0.59278852  1
  H  H534  1  0.72243510  0.24142957  0.57601547  1
  C  C535  1  0.57795162  0.38436116  0.67874113  1
  H  H536  1  0.61337197  0.08212393  0.70404985  1
  H  H537  1  0.61176522  0.12044733  0.54299013  1
  C  C538  1  0.60768051  0.13820317  0.73396627  1
  C  C539  1  0.59348852  0.17569293  0.51857026  1
  H  H540  1  0.67590211  0.22839138  0.72768478  1
  H  H541  1  0.71104954  0.40788211  0.73486482  1
  C  C542  1  0.52917049  0.06116786  0.74094922  1
  C  C543  1  0.54505554  0.15738597  0.50995604  1
  C  C544  1  0.52020353  0.06218412  0.53091529  1
  H  H545  1  0.54315156  0.45338519  0.51236725  1
  C  C546  1  0.70920602  0.01788157  0.57867427  1
  C  C547  1  0.64261755  0.21732058  0.74723700  1
  H  H548  1  0.73960112  0.19637324  0.69039558  1
  C  C549  1  0.55280065  0.48503776  0.68959311  1
  H  H550  1  0.65483994  0.27301737  0.50507379  1
  O  O551  1  0.99940792  0.27816229  0.51498842  1
  C  C552  1  0.85574795  0.01954735  0.72648726  1
  H  H553  1  0.86300643  0.43720291  0.69829599  1
  O  O554  1  0.75050877  0.05609626  0.56614649  1
  O  O555  1  0.79074167  0.21481504  0.62003028  1
  C  C556  1  0.81227720  0.23579216  0.70156104  1
  H  H557  1  0.89772916  0.07828446  0.66736192  1
  H  H558  1  0.88377133  0.27667978  0.71957882  1
  C  C559  1  0.97962494  0.01802239  0.69748884  1
  O  O560  1  0.85660206  0.29499040  0.63431800  1
  C  C561  1  0.84508075  0.49879775  0.72167698  1
  Cu  Cu562  1  0.99582582  0.49051787  0.69140272  1
  C  C563  1  0.76748040  0.20058485  0.71584135  1
  O  O564  1  0.97990506  0.07306472  0.65657455  1
  C  C565  1  0.89571312  0.03392171  0.70105241  1
  C  C566  1  0.81951868  0.26196475  0.64903150  1
  Cu  Cu567  1  0.80282261  0.06998607  0.60998465  1
  H  H568  1  0.82084968  0.05331541  0.71479034  1
  H  H569  1  0.78865566  0.39371584  0.74280777  1
  C  C570  1  0.84915904  0.25165058  0.73203168  1
  C  C571  1  0.80547782  0.47396460  0.74802809  1
  H  H572  1  0.92189547  0.16408670  0.50157576  1
  H  H573  1  0.64781990  0.34061210  0.87278208  1
  C  C574  1  0.66905189  0.39468385  0.85038181  1
  H  H575  1  0.66448612  0.29369257  0.94082178  1
  C  C576  1  0.66186991  0.20841044  0.95241882  1
  C  C577  1  0.70166153  0.13723828  0.94782674  1
  C  C578  1  0.61881974  0.17107278  0.97083454  1
  C  C579  1  0.67402910  0.37372160  0.79938098  1
  H  H580  1  0.58618606  0.33925096  0.84591826  1
  C  C581  1  0.59151539  0.28493787  0.81350047  1
  C  C582  1  0.63602329  0.28654758  0.78839011  1
  C  C583  1  0.70990583  0.42352345  0.77350706  1
  H  H584  1  0.52419573  0.20229626  0.81682430  1
  C  C585  1  0.55875563  0.20970591  0.79971043  1
  C  C586  1  0.61672504  0.05814447  0.98672616  1
  H  H587  1  0.72972001  0.09629852  0.85420162  1
  H  H588  1  0.72763684  0.15277505  0.77999387  1
  C  C589  1  0.69692740  0.02359583  0.96213734  1
  C  C590  1  0.69391189  0.48565376  0.87057818  1
  C  C591  1  0.74576583  0.17908037  0.92398891  1
  C  C592  1  0.69876178  0.49849569  0.96420059  1
  H  H593  1  0.73734419  0.49275646  0.96326304  1
  H  H594  1  0.58634505  0.22557368  0.97590526  1
  C  C595  1  0.57223714  0.01149484  0.99956129  1
  C  C596  1  0.56586723  0.13819358  0.75887186  1
  C  C597  1  0.76116867  0.17977870  0.76485880  1
  C  C598  1  0.77508107  0.25380356  0.94737084  1
  H  H599  1  0.85115520  0.31645079  0.85632392  1
  C  C600  1  0.75414765  0.14739583  0.87457626  1
  C  C601  1  0.79392162  0.19668878  0.85358419  1
  C  C602  1  0.81881130  0.28706574  0.92690365  1
  H  H603  1  0.96663039  0.44384970  0.93273695  1
  H  H604  1  0.90296480  0.35122524  0.89325352  1
  C  C605  1  0.82406397  0.27058036  0.87633372  1
  C  C606  1  0.84196516  0.22485568  0.77997120  1
  C  C607  1  0.85682162  0.34545192  0.95428544  1
  H  H608  1  0.87146231  0.23924119  0.80298936  1
  C  C609  1  0.93372824  0.43379955  0.95376323  1
  C  C610  1  0.89862937  0.37770270  0.92980411  1
  C  C611  1  0.79833603  0.19260899  0.79722668  1
  H  H612  1  0.76499126  0.27873626  0.98299399  1
  C  C613  1  0.69566056  0.64810381  0.20852443  1
  Cu  Cu614  1  0.69037739  0.61299410  0.11678598  1
  O  O615  1  0.66419394  0.62550700  0.17473277  1
  H  H616  1  0.51174872  0.64870198  0.08130689  1
  O  O617  1  0.71054889  0.65175586  0.05998401  1
  O  O618  1  0.70559927  0.74414701  0.21607197  1
  C  C619  1  0.74417438  0.72272362  0.05044847  1
  C  C620  1  0.71993422  0.55488220  0.23617706  1
  O  O621  1  0.57070486  0.90650475  0.00611116  1
  O  O622  1  0.52106751  0.69358721  0.00122077  1
  O  O623  1  0.99826039  0.61794159  0.23669876  1
  C  C624  1  0.85514400  0.69208233  0.22078215  1
  H  H625  1  0.81641773  0.86354662  0.01482772  1
  H  H626  1  0.97136803  0.88870605  0.20023333  1
  O  O627  1  0.96897863  0.61690956  0.16241886  1
  H  H628  1  0.95219933  0.73497019  0.02055057  1
  C  C629  1  0.96982567  0.52320796  0.02359649  1
  O  O630  1  0.97155614  0.54882845  0.06800736  1
  C  C631  1  0.87250812  0.59891023  0.19855758  1
  C  C632  1  0.91985753  0.98846877  0.23544657  1
  C  C633  1  0.94548379  0.95456897  0.19546857  1
  H  H634  1  0.94439269  0.76928857  0.24221207  1
  H  H635  1  0.93562049  0.76820227  0.10970784  1
  C  C636  1  0.95079002  0.83608837  0.08600066  1
  H  H637  1  0.83656106  0.75552313  0.20113662  1
  C  C638  1  0.96205776  0.81530057  0.03835951  1
  C  C639  1  0.95959638  0.94735071  0.10288352  1
  H  H640  1  0.79997482  0.87294286  0.23407879  1
  H  H641  1  0.87581847  0.58493363  0.16004533  1
  O  O642  1  0.76920229  0.76004736  0.08169303  1
  C  C643  1  0.98194536  0.89902579  0.00965042  1
  C  C644  1  0.89321803  0.51041271  0.22653319  1
  C  C645  1  0.75083079  0.76496304  0.00072536  1
  C  C646  1  0.93589773  0.99546805  0.14821342  1
  C  C647  1  0.59276585  0.94089695  0.45236628  1
  H  H648  1  0.74129881  0.67760646  0.40603344  1
  O  O649  1  0.55772142  0.94627121  0.42218530  1
  H  H650  1  0.67822868  0.95129257  0.31388877  1
  H  H651  1  0.51429908  0.56571703  0.44027818  1
  C  C652  1  0.51155002  0.59620490  0.47755982  1
  H  H653  1  0.74499053  0.99766095  0.36717565  1
  C  C654  1  0.68901274  0.99704484  0.28096243  1
  H  H655  1  0.74191388  0.87570234  0.44565585  1
  H  H656  1  0.60193079  0.57454210  0.25439471  1
  O  O657  1  0.59547613  0.86360258  0.48154822  1
  H  H658  1  0.67927916  0.95612187  0.49959509  1
  C  C659  1  0.78181258  0.50228539  0.28988529  1
  Cu  Cu660  1  0.98779801  0.51510923  0.43641845  1
  C  C661  1  0.76065364  0.58441989  0.26380456  1
  H  H662  1  0.91048200  0.89631440  0.49700814  1
  H  H663  1  0.77461040  0.67008413  0.26641274  1
  C  C664  1  0.76643305  0.60890814  0.41168149  1
  C  C665  1  0.88068103  0.61252887  0.29959985  1
  C  C666  1  0.83208333  0.79214047  0.29610516  1
  C  C667  1  0.80461843  0.87372345  0.37012759  1
  C  C668  1  0.86012539  0.89779357  0.43677833  1
  O  O669  1  0.89884658  0.67040508  0.46185015  1
  C  C670  1  0.89077623  0.57087321  0.44622045  1
  H  H671  1  0.82331647  0.71771867  0.43697863  1
  C  C672  1  0.93546275  0.92862374  0.28125656  1
  C  C673  1  0.81227800  0.62830599  0.42711637  1
  C  C674  1  0.95720240  0.91518113  0.36311386  1
  C  C675  1  0.96052217  0.74780021  0.31414911  1
  C  C676  1  0.93616044  0.97761935  0.32718404  1
  C  C677  1  0.84418882  0.54016701  0.43019227  1
  C  C678  1  0.80315595  0.87173374  0.27150100  1
  C  C679  1  0.87477232  0.90018580  0.48397565  1
  C  C680  1  0.77169427  0.94050086  0.29781826  1
  C  C681  1  0.97079936  0.80268594  0.35917652  1
  C  C682  1  0.94490020  0.81173396  0.27700878  1
  H  H683  1  0.88884511  0.89774589  0.40976374  1
  C  C684  1  0.77072671  0.94424981  0.34804531  1
  H  H685  1  0.88544586  0.61739573  0.33995058  1
  Cu  Cu686  1  0.95288621  0.71133885  0.49480823  1
  C  C687  1  0.85577786  0.69597120  0.27162006  1
  C  C688  1  0.98523430  0.73664145  0.39963434  1
  C  C689  1  0.77821532  0.89023778  0.45828579  1
  C  C690  1  0.83421908  0.80231830  0.34569087  1
  C  C691  1  0.81274551  0.89672947  0.42214440  1
  O  O692  1  0.98248426  0.77644638  0.44162878  1
  H  H693  1  0.85811047  0.75054656  0.36742755  1
  H  H694  1  0.96883044  0.65749841  0.30960754  1
  O  O695  1  0.98923617  0.63159905  0.39087380  1
  H  H696  1  0.96438283  0.94717759  0.39958661  1
  C  C697  1  0.89741161  0.51951025  0.27647866  1
  H  H698  1  0.81398328  0.51368643  0.31248302  1
  C  C699  1  0.61320711  0.80469429  0.67377623  1
  O  O700  1  0.58679426  0.77602600  0.59521025  1
  H  H701  1  0.66588620  0.76027208  0.62481996  1
  C  C702  1  0.66045651  0.78571588  0.66119885  1
  C  C703  1  0.69572843  0.79301967  0.69523057  1
  C  C704  1  0.57571937  0.79684885  0.63805945  1
  O  O705  1  0.53435062  0.82523534  0.64666998  1
  H  H706  1  0.73074094  0.77610899  0.68396789  1
  Cu  Cu707  1  0.56195011  0.85157666  0.54360643  1
  O  O708  1  0.69914607  0.92020542  0.58036094  1
  C  C709  1  0.60332706  0.82396916  0.72239760  1
  C  C710  1  0.53277839  0.54966458  0.65281097  1
  H  H711  1  0.62314840  0.58690199  0.72140802  1
  C  C712  1  0.52620583  0.53752857  0.51699387  1
  H  H713  1  0.62729665  0.96294860  0.61553819  1
  C  C714  1  0.55412798  0.52796440  0.74122455  1
  C  C715  1  0.53031666  0.50393122  0.60516088  1
  H  H716  1  0.52528580  0.63969696  0.66079779  1
  O  O717  1  0.53924429  0.99329252  0.55842940  1
  Cu  Cu718  1  0.50522903  0.97169942  0.64324394  1
  C  C719  1  0.51694207  0.58003299  0.56387994  1
  H  H720  1  0.56576456  0.82737572  0.73234430  1
  C  C721  1  0.68415190  0.83758153  0.74053097  1
  O  O722  1  0.53957020  0.99812418  0.70383059  1
  H  H723  1  0.99627904  0.72788259  0.67169465  1
  O  O724  1  0.81758627  0.92020187  0.60106978  1
  O  O725  1  0.88987165  0.88969886  0.58483711  1
  Cu  Cu726  1  0.90523268  0.79741294  0.63263388  1
  H  H727  1  0.76448313  0.92989512  0.71898294  1
  C  C728  1  0.79145038  0.90094827  0.50562094  1
  C  C729  1  0.93649389  0.99184145  0.72459467  1
  O  O730  1  0.95306733  0.71625873  0.59469359  1
  O  O731  1  0.93408791  0.53949090  0.68122278  1
  C  C732  1  0.91165784  0.62168008  0.69806383  1
  C  C733  1  0.99131358  0.75154138  0.57844004  1
  C  C734  1  0.84850928  0.89972344  0.57059021  1
  C  C735  1  0.83877516  0.90326797  0.51866019  1
  H  H736  1  0.76466288  0.89260191  0.53398482  1
  O  O737  1  0.92467796  0.71843994  0.68827467  1
  C  C738  1  0.86763543  0.60678133  0.72595859  1
  O  O739  1  0.99588176  0.75909423  0.53307193  1
  C  C740  1  0.84096368  0.69334157  0.74705074  1
  H  H741  1  0.85520717  0.77937657  0.74185325  1
  C  C742  1  0.57663298  0.63358658  0.82771943  1
  O  O743  1  0.61925559  0.75995493  0.87057067  1
  C  C744  1  0.58495215  0.70376917  0.87066913  1
  H  H745  1  0.64413323  0.68109274  0.79784394  1
  H  H746  1  0.67769835  0.84167581  0.84075118  1
  Cu  Cu747  1  0.55458027  0.79770847  0.95697004  1
  O  O748  1  0.55710895  0.69221604  0.90750215  1
  C  C749  1  0.61029151  0.63866484  0.79403311  1
  H  H750  1  0.69045133  0.72559004  0.89881151  1
  C  C751  1  0.71278347  0.86173169  0.82673009  1
  C  C752  1  0.71538365  0.72850205  0.96914657  1
  C  C753  1  0.53474153  0.57190705  0.82342553  1
  C  C754  1  0.72156828  0.86985194  0.77681076  1
  C  C755  1  0.71810521  0.76113062  0.92162899  1
  H  H756  1  0.62610640  0.87454104  0.79103137  1
  C  C757  1  0.73190736  0.54026691  0.84451107  1
  C  C758  1  0.52311770  0.51644195  0.78244953  1
  H  H759  1  0.65087912  0.89444609  0.98973993  1
  H  H760  1  0.72637050  0.96319767  0.95279455  1
  C  C761  1  0.63661548  0.84531423  0.75577097  1
  C  C762  1  0.67260818  0.50646046  0.92070724  1
  H  H763  1  0.60636565  0.52226115  0.87892195  1
  H  H764  1  0.51148024  0.57178223  0.85498567  1
  C  C765  1  0.73961640  0.50422341  0.79719330  1
  H  H766  1  0.68848255  0.66999015  0.98086052  1
  C  C767  1  0.62289180  0.51354412  0.91449330  1
  C  C768  1  0.65494582  0.98320599  0.98173786  1
  C  C769  1  0.59779078  0.58099145  0.75159949  1
  H  H770  1  0.55971456  0.50432290  0.95736663  1
  C  C771  1  0.59853120  0.50211701  0.95664784  1
  H  H772  1  0.89128729  0.89699510  0.83066354  1
  C  C773  1  0.75374017  0.87205851  0.85689482  1
  H  H774  1  0.82858772  0.91501206  0.86433871  1
  H  H775  1  0.77848917  0.73974822  0.78903601  1
  C  C776  1  0.89463387  0.92680380  0.79362214  1
  H  H777  1  0.97195553  0.91674549  0.78395931  1
  C  C778  1  0.80380181  0.92790526  0.78918801  1
  C  C779  1  0.75502627  0.83556702  0.90863664  1
  C  C780  1  0.78331360  0.55840219  0.77433597  1
  C  C781  1  0.93835113  0.94184759  0.76959836  1
  C  C782  1  0.78833499  0.83879197  0.98986791  1
  H  H783  1  0.75598939  0.60101179  0.86198148  1
  H  H784  1  0.81891979  0.92706366  0.93233771  1
  C  C785  1  0.99234848  0.86248958  0.95915217  1
  C  C786  1  0.79060809  0.87060160  0.94248987  1
  C  C787  1  0.80008919  0.67041437  0.77360171  1
  C  C788  1  0.79785083  0.90766829  0.83958968  1
  C  C789  1  0.85229056  0.95669063  0.77060330  1
  C  C790  1  0.76417417  0.91446752  0.75745945  1
  O  O791  1  0.99389614  0.75719358  0.95427664  1
