# generated using pymatgen
data_CuH10(C9O2)2
_symmetry_space_group_name_H-M   'P 1'
_cell_length_a   26.07379626
_cell_length_b   13.50621069
_cell_length_c   28.08058848
_cell_angle_alpha   90.00000000
_cell_angle_beta   90.00000000
_cell_angle_gamma   90.00000000
_symmetry_Int_Tables_number   1
_chemical_formula_structural   CuH10(C9O2)2
_chemical_formula_sum   'Cu24 H240 C432 O96'
_cell_volume   9888.80909199
_cell_formula_units_Z   24
loop_
 _symmetry_equiv_pos_site_id
 _symmetry_equiv_pos_as_xyz
  1  'x, y, z'
loop_
 _atom_site_type_symbol
 _atom_site_label
 _atom_site_symmetry_multiplicity
 _atom_site_fract_x
 _atom_site_fract_y
 _atom_site_fract_z
 _atom_site_occupancy
  C  C0  1  0.05194640  0.21060528  0.13233017  1
  C  C1  1  0.04390960  0.12279494  0.10611246  1
  C  C2  1  0.08631193  0.05752935  0.09618461  1
  C  C3  1  0.13458963  0.08069912  0.11354675  1
  C  C4  1  0.09954007  0.22343108  0.15589706  1
  C  C5  1  0.14303008  0.16123782  0.14581390  1
  H  H6  1  0.10560354  0.28244707  0.18220150  1
  Cu  Cu7  1  0.09324695  0.32114223  0.04931698  1
  C  C8  1  0.19337065  0.18454206  0.17222008  1
  H  H9  1  0.14933719  0.33994001  0.12507735  1
  C  C10  1  0.19263561  0.18842192  0.22321524  1
  O  O11  1  0.15297791  0.25099926  0.05045169  1
  C  C12  1  0.20727189  0.38169616  0.07536883  1
  C  C13  1  0.19757213  0.29483690  0.04098178  1
  C  C14  1  0.17768856  0.39478872  0.11572870  1
  O  O15  1  0.07761428  0.44933323  0.02875052  1
  H  H16  1  0.15872732  0.16628644  0.24292364  1
  H  H17  1  0.01829633  0.25627759  0.13950183  1
  C  C18  1  0.23975128  0.21485432  0.24338131  1
  H  H19  1  0.00535050  0.24287474  0.21122476  1
  H  H20  1  0.16602396  0.02871522  0.10653652  1
  C  C21  1  0.23539405  0.21591976  0.14331834  1
  H  H22  1  0.22899452  0.22671437  0.10427568  1
  C  C23  1  0.18813633  0.47634447  0.14443413  1
  O  O24  1  0.04164394  0.27628862  0.00903241  1
  H  H25  1  0.16516143  0.48581496  0.17608302  1
  O  O26  1  0.21985466  0.28361056  0.00571978  1
  H  H27  1  0.05549989  0.01070225  0.21298137  1
  H  H28  1  0.24883739  0.39685204  0.23133179  1
  C  C29  1  0.24676816  0.44456881  0.06413043  1
  O  O30  1  0.49588415  0.01047290  0.14411443  1
  Cu  Cu31  1  0.48675263  0.00843318  0.01525762  1
  O  O32  1  0.44795047  0.03549479  0.08025332  1
  C  C33  1  0.28424416  0.23736423  0.21580406  1
  O  O34  1  0.45647181  0.16137674  0.22537797  1
  C  C35  1  0.28211224  0.23956690  0.16699605  1
  C  C36  1  0.30927978  0.05911757  0.21959928  1
  H  H37  1  0.36410292  0.34388903  0.20503647  1
  H  H38  1  0.34670030  0.40898244  0.09544230  1
  H  H39  1  0.37205204  0.12328902  0.18727860  1
  C  C40  1  0.33287831  0.26810425  0.14177486  1
  C  C41  1  0.34262461  0.23066978  0.09483539  1
  C  C42  1  0.36355170  0.47686056  0.08129173  1
  H  H43  1  0.31770507  0.17578580  0.07856331  1
  C  C44  1  0.37780040  0.47610856  0.03337988  1
  C  C45  1  0.41857006  0.34626849  0.14661462  1
  C  C46  1  0.39168061  0.25413101  0.07527580  1
  H  H47  1  0.28237681  0.07413478  0.18928257  1
  H  H48  1  0.26970229  0.42621460  0.03322009  1
  O  O49  1  0.49461535  0.29023206  0.03777558  1
  H  H50  1  0.44677954  0.39738238  0.16146025  1
  H  H51  1  0.40713564  0.22046511  0.04299519  1
  C  C52  1  0.48109270  0.33465419  0.07788980  1
  C  C53  1  0.42965205  0.30779598  0.10046684  1
  H  H54  1  0.32318650  0.25734126  0.23054793  1
  C  C55  1  0.35887754  0.08477603  0.22102716  1
  C  C56  1  0.36984059  0.32036096  0.16827681  1
  H  H57  1  0.36551041  0.41794593  0.00937056  1
  C  C58  1  0.19369461  0.24275467  0.32450080  1
  H  H59  1  0.16459046  0.27909896  0.39059578  1
  H  H60  1  0.15248598  0.24466486  0.31194677  1
  C  C61  1  0.13631467  0.10428577  0.39505911  1
  C  C62  1  0.10582537  0.12436006  0.43514651  1
  C  C63  1  0.20034161  0.26679298  0.37211607  1
  O  O64  1  0.21072724  0.29220003  0.46670232  1
  C  C65  1  0.05313922  0.10081622  0.43458760  1
  C  C66  1  0.20138838  0.03622600  0.31153726  1
  H  H67  1  0.22129612  0.07418690  0.34030860  1
  C  C68  1  0.03032815  0.38793221  0.27628273  1
  H  H69  1  0.12382389  0.16073596  0.46493442  1
  H  H70  1  0.17698316  0.12036449  0.39587439  1
  C  C71  1  0.01950938  0.13008159  0.47571118  1
  C  C72  1  0.03129552  0.05732669  0.39553487  1
  C  C73  1  0.11307448  0.05926784  0.35529561  1
  C  C74  1  0.24017813  0.22807064  0.29793713  1
  C  C75  1  0.06148483  0.02495095  0.35792737  1
  C  C76  1  0.14725297  0.02566191  0.31314004  1
  H  H77  1  0.16589566  0.38965898  0.28432302  1
  O  O78  1  0.12239524  0.41910814  0.36074380  1
  Cu  Cu79  1  0.05797246  0.42971373  0.37891673  1
  O  O80  1  0.03236215  0.44838500  0.31251767  1
  C  C81  1  0.19818677  0.44185033  0.29080554  1
  C  C82  1  0.24136148  0.44830227  0.26219456  1
  O  O83  1  0.06645797  0.36016177  0.25363936  1
  C  C84  1  0.20093799  0.49918229  0.33243102  1
  C  C85  1  0.15887998  0.48766991  0.36859297  1
  C  C86  1  0.24943180  0.26519561  0.39325538  1
  H  H87  1  0.39545308  0.01106981  0.33113279  1
  H  H88  1  0.33024396  0.24564975  0.38641980  1
  C  C89  1  0.28969688  0.22694450  0.31787589  1
  C  C90  1  0.25275244  0.28483522  0.44467194  1
  C  C91  1  0.39201256  0.07048283  0.26100047  1
  C  C92  1  0.44499883  0.10518667  0.25904472  1
  O  O93  1  0.29690116  0.29756552  0.46411210  1
  C  C94  1  0.29350652  0.24583365  0.36622920  1
  C  C95  1  0.37318613  0.01977048  0.30042660  1
  O  O96  1  0.48151303  0.07850077  0.28702199  1
  H  H97  1  0.32455975  0.21347622  0.29387710  1
  C  C98  1  0.28723459  0.01882255  0.26270037  1
  C  C99  1  0.32079245  0.00277629  0.30241812  1
  Cu  Cu100  1  0.21207014  0.33065552  0.53021188  1
  H  H101  1  0.12551652  0.19844814  0.70508706  1
  C  C102  1  0.06585194  0.45013629  0.69010146  1
  H  H103  1  0.19653106  0.12837122  0.70394970  1
  O  O104  1  0.21062976  0.19914488  0.55578569  1
  C  C105  1  0.09687201  0.14220710  0.69385279  1
  H  H106  1  0.05750264  0.23473054  0.64843251  1
  C  C107  1  0.05978678  0.15793836  0.66079638  1
  O  O108  1  0.21983406  0.38542931  0.59441661  1
  Cu  Cu109  1  0.00516334  0.28150219  0.54672816  1
  C  C110  1  0.02419477  0.08329533  0.64671995  1
  H  H111  1  0.17476594  0.07453079  0.61171133  1
  C  C112  1  0.02929157  0.40812254  0.66051289  1
  C  C113  1  0.09888821  0.04642151  0.71430440  1
  C  C114  1  0.19166365  0.08667288  0.73754751  1
  O  O115  1  0.03754907  0.18222755  0.50929616  1
  C  C116  1  0.22414688  0.45214289  0.68933440  1
  H  H117  1  0.18526762  0.43984707  0.67596964  1
  C  C118  1  0.21313902  0.04960110  0.62412809  1
  C  C119  1  0.02636455  0.43341403  0.60734993  1
  C  C120  1  0.07505830  0.40260639  0.73381834  1
  C  C121  1  0.23250165  0.48335707  0.73662841  1
  C  C122  1  0.04705372  0.31683538  0.74916206  1
  C  C123  1  0.14432219  0.03558919  0.74716068  1
  O  O124  1  0.05291012  0.49266112  0.58780750  1
  C  C125  1  0.25304979  0.16693168  0.56966403  1
  C  C126  1  0.37413576  0.24909932  0.74103710  1
  H  H127  1  0.34400476  0.10242263  0.60779736  1
  O  O128  1  0.30345970  0.39191444  0.58983326  1
  C  C129  1  0.26141865  0.40941419  0.61170457  1
  C  C130  1  0.25920712  0.08754638  0.60514017  1
  O  O131  1  0.29408521  0.20270144  0.55147051  1
  H  H132  1  0.26422343  0.18186110  0.68522059  1
  H  H133  1  0.34322738  0.28418146  0.66878105  1
  O  O134  1  0.43060465  0.35440751  0.70267677  1
  C  C135  1  0.30979007  0.06447220  0.62064253  1
  C  C136  1  0.42206107  0.30812475  0.73783050  1
  C  C137  1  0.33677307  0.24426686  0.70377173  1
  H  H138  1  0.35133943  0.44183100  0.65587128  1
  C  C139  1  0.29285261  0.18983532  0.71301210  1
  Cu  Cu140  1  0.30303163  0.33669104  0.52862904  1
  C  C141  1  0.31809424  0.44955250  0.67911538  1
  C  C142  1  0.26770737  0.43859452  0.66229715  1
  C  C143  1  0.32532202  0.47903325  0.72587603  1
  H  H144  1  0.36500497  0.48293489  0.73737179  1
  C  C145  1  0.11546567  0.13373479  0.85859709  1
  H  H146  1  0.13136735  0.08628630  0.88592302  1
  C  C147  1  0.06458765  0.11493270  0.83853481  1
  C  C148  1  0.14276964  0.21151157  0.83697667  1
  C  C149  1  0.11897110  0.27181199  0.80189861  1
  H  H150  1  0.19046646  0.20828430  0.92416423  1
  C  C151  1  0.19844141  0.24347539  0.84836102  1
  C  C152  1  0.21727997  0.23264400  0.89488412  1
  C  C153  1  0.04020125  0.17018400  0.80298664  1
  H  H154  1  0.18895489  0.39887216  0.89055876  1
  C  C155  1  0.06973890  0.25075338  0.78653916  1
  C  C156  1  0.22908797  0.28731600  0.81209529  1
  C  C157  1  0.04408097  0.27073867  0.96300242  1
  H  H158  1  0.11175526  0.41065226  0.94867475  1
  O  O159  1  0.08102135  0.23478838  0.94305545  1
  H  H160  1  0.13936187  0.34045535  0.78937044  1
  H  H161  1  0.03382636  0.24596105  0.87143979  1
  C  C162  1  0.14768174  0.44993193  0.95497254  1
  H  H163  1  0.21470609  0.30397321  0.77451629  1
  C  C164  1  0.18830431  0.44790995  0.92288453  1
  H  H165  1  0.03874911  0.09716340  0.93385512  1
  H  H166  1  0.21332047  0.07328540  0.90026214  1
  H  H167  1  0.21954497  0.45983426  0.83543159  1
  H  H168  1  0.10688675  0.42845353  0.75822007  1
  C  C169  1  0.23305377  0.08442564  0.76927400  1
  C  C170  1  0.03026237  0.02915731  0.91475883  1
  C  C171  1  0.22893127  0.03801811  0.81421737  1
  H  H172  1  0.00137355  0.15028326  0.78896614  1
  C  C173  1  0.03810721  0.02755873  0.86342914  1
  H  H174  1  0.20031357  0.03250238  0.98430893  1
  C  C175  1  0.00459567  0.32122963  0.93271627  1
  C  C176  1  0.00445679  0.29639092  0.88404883  1
  H  H177  1  0.19941055  0.49390916  0.76082576  1
  H  H178  1  0.30887723  0.10590000  0.82534944  1
  O  O179  1  0.37713001  0.36022711  0.83811098  1
  C  C180  1  0.35383352  0.32354487  0.87429708  1
  O  O181  1  0.49607178  0.48011767  0.81906843  1
  Cu  Cu182  1  0.43729770  0.41122035  0.82674308  1
  H  H183  1  0.26233794  0.03365532  0.83807256  1
  O  O184  1  0.44994619  0.31888750  0.77870770  1
  C  C185  1  0.36504993  0.19758106  0.78404079  1
  C  C186  1  0.28261938  0.14018476  0.75711232  1
  H  H187  1  0.43368160  0.00836790  0.89541982  1
  C  C188  1  0.27866096  0.31265271  0.82376325  1
  O  O189  1  0.41229546  0.48200426  0.94482557  1
  H  H190  1  0.30010167  0.34532210  0.79340425  1
  C  C191  1  0.29927811  0.30136896  0.87065880  1
  C  C192  1  0.32079238  0.14331750  0.79142119  1
  O  O193  1  0.47741513  0.25502896  0.89520651  1
  O  O194  1  0.42629608  0.03556329  0.98511009  1
  H  H195  1  0.39481320  0.19739889  0.81084599  1
  H  H196  1  0.27993016  0.23705719  0.94249053  1
  C  C197  1  0.26734131  0.25514250  0.90433847  1
  Cu  Cu198  1  0.44668677  0.36497030  0.91625183  1
  O  O199  1  0.37793881  0.30274387  0.91080539  1
  C  C200  1  0.28176160  0.49724267  0.75522113  1
  C  C201  1  0.23306787  0.63820815  0.16402603  1
  C  C202  1  0.04697696  0.80830808  0.14044360  1
  C  C203  1  0.09689721  0.76737620  0.14323075  1
  H  H204  1  0.11218218  0.70779034  0.11951821  1
  C  C205  1  0.13197241  0.81827112  0.17141973  1
  H  H206  1  0.17419679  0.79879776  0.17290256  1
  Cu  Cu207  1  0.07696094  0.71563169  0.03924464  1
  O  O208  1  0.10878270  0.58483596  0.05970726  1
  C  C209  1  0.19995676  0.65255955  0.20289139  1
  H  H210  1  0.16705942  0.59944854  0.20683406  1
  C  C211  1  0.03001478  0.89610768  0.16267616  1
  O  O212  1  0.16884419  0.90117671  0.04730275  1
  C  C213  1  0.20637180  0.72638054  0.23957317  1
  C  C214  1  0.11408560  0.90578591  0.19675591  1
  C  C215  1  0.06318609  0.94500043  0.19355192  1
  O  O216  1  0.02062735  0.68701960  0.07897596  1
  H  H217  1  0.19218985  0.63600009  0.03328683  1
  C  C218  1  0.22516826  0.54867295  0.13090789  1
  C  C219  1  0.14842843  0.94930058  0.23377261  1
  C  C220  1  0.15803132  0.85419557  0.01336357  1
  C  C221  1  0.20211316  0.96793489  0.23090147  1
  H  H222  1  0.22542507  0.95091466  0.19861994  1
  H  H223  1  0.08082258  0.98660793  0.07658928  1
  O  O224  1  0.13622984  0.76195324  0.01779958  1
  C  C225  1  0.10940506  0.51992203  0.02729414  1
  H  H226  1  0.11250880  0.64474805  0.23244365  1
  C  C227  1  0.00783482  0.75685884  0.10889726  1
  C  C228  1  0.19259227  0.58721014  0.00082298  1
  C  C229  1  0.25139716  0.78754468  0.23493807  1
  H  H230  1  0.36472697  0.95955940  0.07595771  1
  H  H231  1  0.48304904  0.71891016  0.20941484  1
  O  O232  1  0.35370022  0.97214310  0.01183021  1
  C  C233  1  0.42268899  0.57039468  0.23627148  1
  C  C234  1  0.37777549  0.55434470  0.11088139  1
  H  H235  1  0.29194393  0.51751811  0.17521323  1
  H  H236  1  0.38411107  0.79943532  0.23816245  1
  C  C237  1  0.25866181  0.52766171  0.09182876  1
  C  C238  1  0.42006547  0.88485173  0.18240055  1
  C  C239  1  0.32989326  0.52835801  0.24397078  1
  C  C240  1  0.27604061  0.70260880  0.15873461  1
  C  C241  1  0.40057005  0.64066901  0.09108589  1
  C  C242  1  0.41977236  0.64195666  0.04552293  1
  C  C243  1  0.40598839  0.55848826  0.01755841  1
  H  H244  1  0.29691120  0.83650627  0.10315293  1
  C  C245  1  0.42019085  0.57571685  0.18514896  1
  H  H246  1  0.45455230  0.89539578  0.20518245  1
  C  C247  1  0.33021772  0.85936092  0.12664135  1
  H  H248  1  0.29289080  0.57371986  0.08447059  1
  H  H249  1  0.44393395  0.70311463  0.03134699  1
  H  H250  1  0.41142469  0.70324719  0.11420611  1
  C  C251  1  0.32926511  0.53106125  0.19336871  1
  H  H252  1  0.45267071  0.59539162  0.16464829  1
  H  H253  1  0.30490314  0.69243682  0.13126254  1
  C  C254  1  0.36779780  0.92338826  0.11226222  1
  C  C255  1  0.33333414  0.82504470  0.17493673  1
  C  C256  1  0.28359851  0.77501365  0.19451509  1
  C  C257  1  0.37955324  0.83030826  0.20103559  1
  C  C258  1  0.37211931  0.55196786  0.16613379  1
  C  C259  1  0.41375690  0.93339249  0.13897655  1
  C  C260  1  0.45609539  0.99447226  0.11989668  1
  C  C261  1  0.49854504  0.69522654  0.24389681  1
  C  C262  1  0.16884592  0.79391873  0.31850767  1
  C  C263  1  0.13005582  0.79889514  0.35053759  1
  H  H264  1  0.13263842  0.84347995  0.38376330  1
  H  H265  1  0.20250970  0.84374943  0.32291085  1
  C  C266  1  0.08410338  0.74445129  0.34043856  1
  C  C267  1  0.07802296  0.68772326  0.29948627  1
  H  H268  1  0.04184306  0.64658603  0.29605168  1
  C  C269  1  0.16382850  0.73557893  0.27561852  1
  O  O270  1  0.05232590  0.79202090  0.41181581  1
  Cu  Cu271  1  0.00885150  0.79237093  0.46158270  1
  C  C272  1  0.11788885  0.68557025  0.26661182  1
  C  C273  1  0.12050367  0.97755995  0.27514310  1
  H  H274  1  0.08188981  0.95587279  0.27322850  1
  C  C275  1  0.04184839  0.73500504  0.37571783  1
  H  H276  1  0.23335412  0.61311536  0.37771313  1
  C  C277  1  0.23907134  0.57068505  0.34386386  1
  O  O278  1  0.00117276  0.69417797  0.36913294  1
  O  O279  1  0.15893413  0.53294211  0.40428691  1
  C  C280  1  0.22964419  0.99966643  0.27110524  1
  H  H281  1  0.04483063  0.97204703  0.33236486  1
  H  H282  1  0.26476662  0.83228988  0.26559835  1
  H  H283  1  0.30593516  0.97259110  0.33578797  1
  C  C284  1  0.48184125  0.57545381  0.30801815  1
  C  C285  1  0.28199113  0.51463004  0.27375851  1
  H  H286  1  0.45900005  0.51678605  0.32411898  1
  H  H287  1  0.31603894  0.62888107  0.32024460  1
  C  C288  1  0.37908006  0.54830773  0.26538888  1
  H  H289  1  0.38005305  0.56214398  0.30349503  1
  C  C290  1  0.28211243  0.57930242  0.31481314  1
  C  C291  1  0.47044029  0.61235461  0.26184868  1
  H  H292  1  0.20696825  0.78253510  0.69334661  1
  H  H293  1  0.18025331  0.95515094  0.67309105  1
  H  H294  1  0.13286307  0.74344163  0.71947471  1
  C  C295  1  0.23140351  0.80089144  0.72324140  1
  C  C296  1  0.06245028  0.97109984  0.70221458  1
  H  H297  1  0.06402937  0.89857361  0.72250837  1
  C  C298  1  0.21787824  0.97670381  0.65820415  1
  H  H299  1  0.09018124  0.51205690  0.68075742  1
  C  C300  1  0.02577878  0.98894554  0.66776162  1
  H  H301  1  0.05217932  0.66409886  0.74997971  1
  C  C302  1  0.26799591  0.94696510  0.67532375  1
  H  H303  1  0.35346891  0.96906108  0.66863015  1
  C  C304  1  0.26598342  0.88033372  0.71988187  1
  C  C305  1  0.31377203  0.98823261  0.65595748  1
  C  C306  1  0.08200116  0.61387612  0.81257459  1
  C  C307  1  0.12568970  0.60600329  0.84085260  1
  C  C308  1  0.17462448  0.63874797  0.82664655  1
  C  C309  1  0.17899878  0.69067015  0.78278952  1
  C  C310  1  0.03341655  0.76576269  0.95116862  1
  C  C311  1  0.02776619  0.84873891  0.91776059  1
  H  H312  1  0.15023426  0.79059274  0.84940748  1
  C  C313  1  0.15664432  0.81435523  0.92760932  1
  H  H314  1  0.02944672  0.77277735  0.84901118  1
  C  C315  1  0.16178058  0.83871379  0.87997250  1
  C  C316  1  0.03030737  0.84722710  0.86754705  1
  C  C317  1  0.02506871  0.94238875  0.94108005  1
  C  C318  1  0.03292831  0.93304373  0.83978052  1
  H  H319  1  0.20501181  0.63656587  0.85285729  1
  H  H320  1  0.02920633  0.93540390  0.79964795  1
  H  H321  1  0.13903950  0.73925921  0.93637005  1
  C  C322  1  0.16573540  0.88550992  0.96432648  1
  H  H323  1  0.10576413  0.93885060  0.79582166  1
  C  C324  1  0.17920371  0.93838039  0.87100324  1
  C  C325  1  0.22457624  0.75778360  0.76896451  1
  C  C326  1  0.03142902  0.57629389  0.82934319  1
  O  O327  1  0.04260504  0.68106836  0.93535043  1
  C  C328  1  0.08776408  0.65873285  0.76890196  1
  C  C329  1  0.18942507  0.97867374  0.95643269  1
  H  H330  1  0.02831620  0.94788451  0.98034624  1
  H  H331  1  0.12087541  0.57150590  0.87632395  1
  C  C332  1  0.23461359  0.57822225  0.97151491  1
  C  C333  1  0.23009988  0.51531955  0.93025304  1
  O  O334  1  0.03631764  0.53213676  0.86850414  1
  C  C335  1  0.18394547  0.98418249  0.82209093  1
  C  C336  1  0.19720530  0.99949816  0.90845216  1
  C  C337  1  0.15215222  0.51811124  0.99340557  1
  C  C338  1  0.13449905  0.69770510  0.75287835  1
  O  O339  1  0.03478244  0.78014004  0.99635137  1
  C  C340  1  0.14168836  0.97906194  0.78895679  1
  H  H341  1  0.26219255  0.74610263  0.83777057  1
  H  H342  1  0.25518085  0.85431413  0.88387679  1
  C  C343  1  0.25300480  0.51048170  0.84272158  1
  H  H344  1  0.27061179  0.62236755  0.97680447  1
  C  C345  1  0.49905407  0.86201629  0.94080965  1
  C  C346  1  0.26188491  0.78427049  0.80332876  1
  C  C347  1  0.39370115  0.97977380  0.89010478  1
  C  C348  1  0.31160948  0.93202312  0.92573632  1
  H  H349  1  0.32543083  0.97792463  0.75199769  1
  C  C350  1  0.29998377  0.91695595  0.75544330  1
  C  C351  1  0.41371133  0.79492278  0.93425980  1
  C  C352  1  0.28615996  0.53626296  0.80574690  1
  C  C353  1  0.31760354  0.57986667  0.89590312  1
  O  O354  1  0.49113078  0.87994772  0.98289125  1
  C  C355  1  0.42931317  0.54745491  0.97163297  1
  H  H356  1  0.40524468  0.84070385  0.96602825  1
  C  C357  1  0.46214695  0.79973028  0.91247282  1
  C  C358  1  0.34678994  0.61453205  0.85802430  1
  C  C359  1  0.36237588  0.96902988  0.93021816  1
  H  H360  1  0.33720777  0.73191668  0.92725131  1
  C  C361  1  0.29319289  0.89271364  0.88357147  1
  H  H362  1  0.40016999  0.94754979  0.81579218  1
  H  H363  1  0.35199295  0.62078381  0.77800444  1
  C  C364  1  0.37530595  0.94675341  0.84694329  1
  C  C365  1  0.39270543  0.68295863  0.87156787  1
  H  H366  1  0.45059789  0.64939721  0.81421389  1
  C  C367  1  0.26803627  0.53612172  0.88950928  1
  C  C368  1  0.29636460  0.86572405  0.79987892  1
  C  C369  1  0.47484475  0.75514944  0.86935737  1
  C  C370  1  0.37700484  0.73699930  0.91371297  1
  H  H371  1  0.33532330  0.59372731  0.92957036  1
  O  O372  1  0.46424513  0.60817516  0.95928007  1
  C  C373  1  0.33223301  0.59362465  0.81074507  1
  C  C374  1  0.32606774  0.90185942  0.84346651  1
  C  C375  1  0.43960668  0.69510601  0.84626975  1
  H  H376  1  0.28734667  0.92446566  0.95837643  1
  C  C377  1  0.38014120  0.99383391  0.97943785  1
  C  C378  1  0.67733153  0.28987334  0.05461094  1
  C  C379  1  0.65380277  0.32004110  0.09656591  1
  H  H380  1  0.61755953  0.36443375  0.09758624  1
  C  C381  1  0.72685976  0.24653803  0.05196579  1
  H  H382  1  0.65558059  0.29847565  0.17151382  1
  C  C383  1  0.67777357  0.28923395  0.13965848  1
  O  O384  1  0.56593438  0.18481474  0.19575292  1
  H  H385  1  0.55947079  0.38438082  0.21566901  1
  C  C386  1  0.72449289  0.23745272  0.13588060  1
  C  C387  1  0.71833741  0.21483070  0.22472892  1
  H  H388  1  0.61415307  0.08947459  0.13667836  1
  H  H389  1  0.67813007  0.19956432  0.21996253  1
  C  C390  1  0.69155313  0.46471599  0.21103595  1
  H  H391  1  0.70594103  0.40762661  0.23568334  1
  C  C392  1  0.63009512  0.06543318  0.21176969  1
  O  O393  1  0.50658042  0.39440629  0.09603743  1
  C  C394  1  0.59325555  0.14189830  0.22688063  1
  C  C395  1  0.71698822  0.48793864  0.16849207  1
  C  C396  1  0.63145396  0.04127477  0.16320021  1
  Cu  Cu397  1  0.50414164  0.12686352  0.17569024  1
  H  H398  1  0.74651011  0.43387756  0.08188978  1
  H  H399  1  0.74370488  0.23368740  0.01677408  1
  C  C400  1  0.74924647  0.23017967  0.18390820  1
  C  C401  1  0.66168887  0.01554444  0.24618348  1
  C  C402  1  0.65492712  0.32395617  0.00780180  1
  O  O403  1  0.60935589  0.36743228  0.00926625  1
  C  C404  1  0.86396160  0.43546902  0.17320381  1
  C  C405  1  0.75147911  0.21456507  0.09195757  1
  C  C406  1  0.79201030  0.00683654  0.14646508  1
  H  H407  1  0.80536203  0.47428660  0.22722618  1
  C  C408  1  0.79682788  0.00323276  0.19472610  1
  C  C409  1  0.99663927  0.09199639  0.08209899  1
  O  O410  1  0.99166992  0.01373462  0.05642452  1
  C  C411  1  0.92314001  0.24424707  0.21707760  1
  O  O412  1  0.88807384  0.17085017  0.01134204  1
  O  O413  1  0.95962746  0.15156764  0.08620061  1
  C  C414  1  0.82730655  0.24263799  0.23328428  1
  C  C415  1  0.81428344  0.45844619  0.18848803  1
  C  C416  1  0.77135988  0.45289572  0.15508832  1
  H  H417  1  0.76035895  0.05354676  0.12979468  1
  H  H418  1  0.79096083  0.18338593  0.09307461  1
  Cu  Cu419  1  0.93885818  0.23717083  0.04229112  1
  C  C420  1  0.78071872  0.43186127  0.10687658  1
  H  H421  1  0.77124222  0.05011919  0.21619705  1
  C  C422  1  0.83098585  0.41329463  0.09057125  1
  H  H423  1  0.84079219  0.40021274  0.05163356  1
  H  H424  1  0.82493573  0.25861644  0.15768998  1
  H  H425  1  0.89386952  0.44007951  0.19908939  1
  C  C426  1  0.97175292  0.27927550  0.22871745  1
  O  O427  1  0.92880333  0.36524031  0.05941644  1
  O  O428  1  0.96124652  0.40707951  0.12775969  1
  C  C429  1  0.92408303  0.39269689  0.10408620  1
  C  C430  1  0.88078530  0.28419058  0.24293535  1
  C  C431  1  0.80339322  0.23661514  0.18755287  1
  C  C432  1  0.87064906  0.41086897  0.12400975  1
  H  H433  1  0.91660201  0.19153538  0.18750942  1
  C  C434  1  0.65338907  0.27213990  0.37163894  1
  C  C435  1  0.68310505  0.22762251  0.40735516  1
  C  C436  1  0.55751677  0.37873088  0.33683040  1
  O  O437  1  0.54084354  0.35248406  0.41573680  1
  H  H438  1  0.61629919  0.31031230  0.38034965  1
  C  C439  1  0.53452627  0.31695001  0.37450835  1
  C  C440  1  0.53995811  0.36391770  0.29001770  1
  Cu  Cu441  1  0.55613100  0.28886110  0.47146148  1
  Cu  Cu442  1  0.53494401  0.16626263  0.30731791  1
  O  O443  1  0.59046796  0.15070442  0.27098208  1
  O  O444  1  0.62423640  0.29607292  0.45834173  1
  C  C445  1  0.67010854  0.26170590  0.32508419  1
  H  H446  1  0.64922465  0.29505730  0.29567357  1
  C  C447  1  0.59311800  0.45554036  0.34607694  1
  C  C448  1  0.66705894  0.24569171  0.45943320  1
  C  C449  1  0.72912584  0.17275781  0.40397593  1
  C  C450  1  0.71565252  0.20459253  0.31681319  1
  C  C451  1  0.60858126  0.47018118  0.26387995  1
  H  H452  1  0.60244885  0.47336515  0.38390172  1
  H  H453  1  0.65728182  0.03319001  0.28555191  1
  O  O454  1  0.69180692  0.22350973  0.49266476  1
  C  C455  1  0.62355214  0.49771713  0.31059959  1
  C  C456  1  0.74495803  0.21122505  0.26927260  1
  C  C457  1  0.56528200  0.40845082  0.25232076  1
  C  C458  1  0.74553546  0.16430845  0.35654067  1
  H  H459  1  0.74531408  0.14058485  0.43663536  1
  H  H460  1  0.50748546  0.31187696  0.28232371  1
  O  O461  1  0.51133665  0.23729200  0.36651053  1
  H  H462  1  0.73337701  0.47247420  0.33856540  1
  O  O463  1  0.86387326  0.48781065  0.40316100  1
  C  C464  1  0.81973558  0.48426387  0.38610383  1
  C  C465  1  0.97800129  0.35208131  0.26396229  1
  H  H466  1  0.85213447  0.38885702  0.29696936  1
  H  H467  1  0.99024429  0.03886327  0.39567888  1
  C  C468  1  0.87825101  0.15874865  0.40604643  1
  O  O469  1  0.78509462  0.44027078  0.40967241  1
  C  C470  1  0.96065412  0.38341238  0.42021579  1
  O  O471  1  0.98833838  0.43648905  0.39405790  1
  C  C472  1  0.79853656  0.23374544  0.27616141  1
  H  H473  1  0.78012897  0.12302472  0.34943969  1
  C  C474  1  0.86415986  0.03177400  0.28901851  1
  C  C475  1  0.93778824  0.17781514  0.33631674  1
  H  H476  1  0.94348214  0.44638452  0.31623866  1
  H  H477  1  0.89165630  0.26593529  0.46107317  1
  C  C478  1  0.95886591  0.26150557  0.35567687  1
  C  C479  1  0.88635425  0.35953865  0.27932232  1
  H  H480  1  0.98899002  0.30482668  0.33856220  1
  H  H481  1  0.84901242  0.12070694  0.42670807  1
  H  H482  1  0.87720564  0.09428089  0.26730973  1
  C  C483  1  0.89788116  0.12723146  0.36030794  1
  H  H484  1  0.81563307  0.23890444  0.31177976  1
  O  O485  1  0.97501990  0.09932230  0.47384811  1
  C  C486  1  0.93525472  0.39248427  0.28949561  1
  C  C487  1  0.87175545  0.03633773  0.33906142  1
  C  C488  1  0.90137783  0.24006954  0.42470163  1
  Cu  Cu489  1  0.78001781  0.44461329  0.47679405  1
  H  H490  1  0.94731726  0.15132809  0.29865087  1
  O  O491  1  0.94041132  0.41573467  0.45983644  1
  C  C492  1  0.94011626  0.29461234  0.39951524  1
  Cu  Cu493  1  0.87921752  0.48580851  0.46652892  1
  C  C494  1  0.55808189  0.26404978  0.57250612  1
  H  H495  1  0.68654917  0.26125865  0.70575513  1
  C  C496  1  0.59267726  0.33959628  0.59425321  1
  H  H497  1  0.70523475  0.11817936  0.64565607  1
  C  C498  1  0.71608550  0.25093875  0.73186025  1
  C  C499  1  0.58340108  0.39264926  0.63668213  1
  H  H500  1  0.63454471  0.35421620  0.72589278  1
  C  C501  1  0.66987445  0.43536953  0.57728886  1
  O  O502  1  0.56867583  0.23339158  0.52962214  1
  H  H503  1  0.70456704  0.45454532  0.55708030  1
  C  C504  1  0.63636045  0.36132663  0.56625954  1
  H  H505  1  0.64546555  0.31102530  0.53417300  1
  H  H506  1  0.60155912  0.09334193  0.63098596  1
  H  H507  1  0.54831071  0.37536430  0.65731644  1
  O  O508  1  0.52215763  0.24165452  0.59542970  1
  H  H509  1  0.73511883  0.08600349  0.56048471  1
  C  C510  1  0.61741246  0.46612139  0.65118760  1
  C  C511  1  0.63244893  0.02923837  0.73514169  1
  H  H512  1  0.59041709  0.03497595  0.73081887  1
  C  C513  1  0.61163374  0.01517645  0.62190148  1
  H  H514  1  0.57094438  0.03063167  0.55424545  1
  C  C515  1  0.65838147  0.49441432  0.61899231  1
  C  C516  1  0.74386561  0.13768466  0.63691887  1
  C  C517  1  0.89549742  0.48686466  0.67587845  1
  C  C518  1  0.76584299  0.21323632  0.72058958  1
  H  H519  1  0.76655934  0.40645507  0.61644772  1
  H  H520  1  0.85791420  0.24389325  0.68662339  1
  H  H521  1  0.92857447  0.47942905  0.60583075  1
  C  C522  1  0.98683533  0.10481775  0.61023015  1
  O  O523  1  0.87875027  0.47082071  0.53132946  1
  C  C524  1  0.89353189  0.47342819  0.62657167  1
  C  C525  1  0.84493441  0.18090392  0.61408723  1
  O  O526  1  0.98999327  0.38349920  0.58347171  1
  C  C527  1  0.84523540  0.44947313  0.60756060  1
  O  O528  1  0.98073371  0.19033303  0.59551731  1
  C  C529  1  0.85041386  0.47297978  0.70315655  1
  H  H530  1  0.97254380  0.23780879  0.73954654  1
  Cu  Cu531  1  0.93482545  0.03486242  0.52675126  1
  O  O532  1  0.79389376  0.44297955  0.53977537  1
  H  H533  1  0.77073039  0.41313455  0.70361255  1
  C  C534  1  0.77834045  0.18148471  0.67017019  1
  C  C535  1  0.99886138  0.29489603  0.72494985  1
  C  C536  1  0.83027327  0.20375511  0.66006557  1
  C  C537  1  0.80452730  0.43648035  0.68424925  1
  C  C538  1  0.83893885  0.45323844  0.55724582  1
  O  O539  1  0.87866299  0.13701888  0.52094832  1
  H  H540  1  0.88252939  0.20183861  0.60239253  1
  C  C541  1  0.83102612  0.11827558  0.53193348  1
  C  C542  1  0.99310026  0.33883242  0.68014232  1
  C  C543  1  0.75908045  0.11434128  0.58983640  1
  C  C544  1  0.80069500  0.42729515  0.63567951  1
  C  C545  1  0.80941819  0.14319427  0.58206182  1
  O  O546  1  0.95884109  0.03466663  0.59287932  1
  H  H547  1  0.96088919  0.31601268  0.65787713  1
  H  H548  1  0.84232307  0.16749919  0.73777058  1
  O  O549  1  0.80035211  0.09275995  0.50279980  1
  C  C550  1  0.63683271  0.09638550  0.86453827  1
  C  C551  1  0.62384840  0.10218235  0.81567142  1
  C  C552  1  0.55530271  0.17013401  0.88021090  1
  H  H553  1  0.60678333  0.12483657  0.93793244  1
  C  C554  1  0.60068357  0.12615107  0.89884968  1
  C  C555  1  0.66170335  0.33039998  0.79826810  1
  C  C556  1  0.57879579  0.14954137  0.80050440  1
  C  C557  1  0.54375441  0.18857309  0.83126930  1
  C  C558  1  0.71016994  0.03198857  0.78516683  1
  H  H559  1  0.68924571  0.32547998  0.87389761  1
  C  C560  1  0.66053590  0.35007702  0.84873304  1
  C  C561  1  0.61312742  0.38752526  0.86474123  1
  C  C562  1  0.57592186  0.41882212  0.83178496  1
  H  H563  1  0.60594911  0.39374237  0.90348580  1
  C  C564  1  0.57858676  0.39779730  0.78206690  1
  O  O565  1  0.67435774  0.30130319  0.97094362  1
  O  O566  1  0.52762167  0.21270025  0.95610728  1
  H  H567  1  0.72381826  0.04747907  0.82139187  1
  C  C568  1  0.71080393  0.28020932  0.78059601  1
  C  C569  1  0.65718076  0.04946035  0.77879662  1
  H  H570  1  0.67541336  0.06818469  0.87451772  1
  C  C571  1  0.53080793  0.46837996  0.84992431  1
  C  C572  1  0.62459870  0.36160487  0.76372830  1
  H  H573  1  0.74822260  0.27532309  0.85132797  1
  C  C574  1  0.51733097  0.21161207  0.91229292  1
  H  H575  1  0.70872743  0.48527118  0.79713249  1
  O  O576  1  0.52451270  0.49225090  0.89315730  1
  H  H577  1  0.54344407  0.41088492  0.75949671  1
  H  H578  1  0.50929356  0.23110366  0.82007443  1
  Cu  Cu579  1  0.55175242  0.30759561  0.99720490  1
  H  H580  1  0.56879677  0.16122887  0.76164817  1
  C  C581  1  0.83451610  0.19352244  0.84602850  1
  C  C582  1  0.83449302  0.26269513  0.88360157  1
  C  C583  1  0.75163991  0.25884066  0.81306322  1
  H  H584  1  0.84426142  0.49003055  0.90185013  1
  H  H585  1  0.81695186  0.33928588  0.87655209  1
  C  C586  1  0.89089923  0.43254305  0.78874965  1
  H  H587  1  0.86057625  0.04930363  0.81627337  1
  C  C588  1  0.85278271  0.46974926  0.75755302  1
  C  C589  1  0.84561960  0.48206562  0.86280876  1
  H  H590  1  0.92537370  0.40338887  0.77147579  1
  C  C591  1  0.85815043  0.09779978  0.84903084  1
  H  H592  1  0.97060871  0.41245038  0.98948865  1
  C  C593  1  0.80062391  0.21611266  0.80264434  1
  C  C594  1  0.92945509  0.39791610  0.87152237  1
  C  C595  1  0.90007011  0.11943502  0.97528512  1
  C  C596  1  0.85700825  0.24250921  0.92618049  1
  H  H597  1  0.90651450  0.01415972  0.89132457  1
  C  C598  1  0.88315250  0.14989492  0.92923326  1
  C  C599  1  0.96690796  0.38562368  0.95224144  1
  H  H600  1  0.96459358  0.30311223  0.81634059  1
  C  C601  1  0.80788962  0.19606147  0.75282936  1
  C  C602  1  0.96741996  0.33232924  0.85354807  1
  H  H603  1  0.89910930  0.47353361  0.93439201  1
  O  O604  1  0.92322546  0.03588821  0.97923853  1
  C  C605  1  0.88723470  0.43477359  0.83895552  1
  H  H606  1  0.85655853  0.29417060  0.95537294  1
  C  C607  1  0.92846068  0.42307942  0.92208707  1
  C  C608  1  0.88557731  0.08430718  0.89029476  1
  C  C609  1  0.63816780  0.70058874  0.11956810  1
  C  C610  1  0.57733409  0.84185604  0.10151931  1
  C  C611  1  0.59267350  0.94759346  0.03308992  1
  C  C612  1  0.67157865  0.73219718  0.08085667  1
  C  C613  1  0.65420856  0.81026731  0.05399856  1
  C  C614  1  0.61077585  0.86549816  0.06370651  1
  C  C615  1  0.59137321  0.75699385  0.12754019  1
  H  H616  1  0.70685623  0.68967124  0.07014378  1
  C  C617  1  0.69434896  0.90932187  0.18248353  1
  H  H618  1  0.56782283  0.72731376  0.15768127  1
  C  C619  1  0.65312338  0.61561820  0.15154255  1
  H  H620  1  0.54422036  0.88864827  0.10966451  1
  C  C621  1  0.69810984  0.56622911  0.13775744  1
  C  C622  1  0.62389272  0.58344136  0.19220815  1
  H  H623  1  0.58930462  0.62274692  0.20526106  1
  H  H624  1  0.71702633  0.58492688  0.10468173  1
  C  C625  1  0.66208989  0.96220813  0.14921476  1
  H  H626  1  0.67362522  0.82804232  0.02089666  1
  C  C627  1  0.72608495  0.81640777  0.17175756  1
  H  H628  1  0.66681538  0.93808805  0.11096121  1
  C  C629  1  0.69240918  0.93723321  0.23150470  1
  H  H630  1  0.74528780  0.85894119  0.10184373  1
  C  C631  1  0.73214077  0.75757401  0.21327487  1
  H  H632  1  0.70859828  0.77058648  0.24403142  1
  O  O633  1  0.55573361  0.99766561  0.04649877  1
  C  C634  1  0.64454246  0.51014376  0.22247295  1
  O  O635  1  0.78395638  0.99005255  0.05069572  1
  H  H636  1  0.99113111  0.91917839  0.15868811  1
  C  C637  1  0.79989247  0.67097046  0.16903175  1
  Cu  Cu638  1  0.92461914  0.96979239  0.04076784  1
  H  H639  1  0.75947047  0.76011093  0.02751910  1
  C  C640  1  0.81644473  0.70166534  0.08243314  1
  C  C641  1  0.83662888  0.94672397  0.21483993  1
  C  C642  1  0.77122855  0.68813224  0.21021361  1
  C  C643  1  0.79682505  0.72964785  0.03577618  1
  C  C644  1  0.75134876  0.80266992  0.12920342  1
  C  C645  1  0.86823724  0.66714824  0.08448054  1
  C  C646  1  0.89276685  0.65207800  0.04199153  1
  H  H647  1  0.93302960  0.62753580  0.04610423  1
  C  C648  1  0.78807929  0.72543798  0.12668194  1
  C  C649  1  0.86605907  0.89005757  0.13995871  1
  O  O650  1  0.85796558  0.91625340  0.03877487  1
  O  O651  1  0.96339648  0.78555806  0.10937690  1
  H  H652  1  0.88985679  0.83602141  0.12076851  1
  C  C653  1  0.87403066  0.89002723  0.19095993  1
  H  H654  1  0.83010146  0.61094585  0.16853574  1
  H  H655  1  0.90225585  0.84177261  0.21018244  1
  H  H656  1  0.89002394  0.66433734  0.11893161  1
  C  C657  1  0.82984329  0.95454517  0.12062369  1
  C  C658  1  0.82262599  0.95517875  0.06606571  1
  C  C659  1  0.55281721  0.69209090  0.31151919  1
  O  O660  1  0.59988608  0.67283543  0.37989244  1
  O  O661  1  0.63039935  0.77905226  0.32623197  1
  Cu  Cu662  1  0.61603979  0.71743011  0.44207455  1
  C  C663  1  0.59800295  0.72409962  0.33935822  1
  H  H664  1  0.67957479  0.69644838  0.37455683  1
  O  O665  1  0.65694835  0.59984089  0.44879564  1
  C  C666  1  0.70463626  0.59481750  0.45593440  1
  C  C667  1  0.54015750  0.73761058  0.26712391  1
  C  C668  1  0.52480757  0.61518409  0.33223943  1
  H  H669  1  0.53717619  0.58296256  0.36966438  1
  H  H670  1  0.70496976  0.56953656  0.26809849  1
  C  C671  1  0.72034374  0.71097102  0.38731142  1
  O  O672  1  0.57874530  0.91153312  0.48823799  1
  H  H673  1  0.56115561  0.79988506  0.25186143  1
  H  H674  1  0.72017289  0.90035482  0.25639972  1
  H  H675  1  0.65285788  0.55378388  0.31937274  1
  C  C676  1  0.74455259  0.57580336  0.28074462  1
  H  H677  1  0.73607139  0.81212711  0.33391981  1
  O  O678  1  0.72546915  0.53807216  0.48493151  1
  C  C679  1  0.73925442  0.66081001  0.42801441  1
  O  O680  1  0.62557722  0.77811180  0.49898964  1
  C  C681  1  0.82058104  0.74960034  0.42061319  1
  C  C682  1  0.83257554  0.87787337  0.34916674  1
  H  H683  1  0.86365212  0.68280917  0.25362650  1
  C  C684  1  0.78711076  0.68528094  0.44734228  1
  C  C685  1  0.85954095  0.95820755  0.37123883  1
  C  C686  1  0.84142250  0.94455867  0.26994826  1
  C  C687  1  0.75297438  0.77481798  0.36552602  1
  O  O688  1  0.92223593  0.92116324  0.49063811  1
  H  H689  1  0.80378835  0.80200833  0.28477861  1
  C  C690  1  0.80906054  0.53249069  0.33950519  1
  C  C691  1  0.75895589  0.52260944  0.32152007  1
  H  H692  1  0.88219945  0.59757926  0.33147549  1
  C  C693  1  0.78212039  0.62819311  0.25494024  1
  H  H694  1  0.86472380  0.96273654  0.41143876  1
  C  C695  1  0.82311223  0.86883267  0.29953189  1
  C  C696  1  0.83377895  0.63979681  0.27290757  1
  C  C697  1  0.84451692  0.59260511  0.31522814  1
  H  H698  1  0.79830777  0.66065467  0.48269462  1
  C  C699  1  0.80481360  0.79876249  0.37865137  1
  H  H700  1  0.86103931  0.75562095  0.43350789  1
  C  C701  1  0.61728498  0.88899552  0.56423204  1
  C  C702  1  0.64013756  0.81826257  0.59463895  1
  C  C703  1  0.68691455  0.60627001  0.68826571  1
  H  H704  1  0.65215723  0.74255164  0.58431282  1
  C  C705  1  0.69137366  0.57691907  0.63973097  1
  C  C706  1  0.65189937  0.85061908  0.64056481  1
  H  H707  1  0.66163453  0.56845254  0.71503806  1
  C  C708  1  0.71993662  0.68553071  0.70356084  1
  C  C709  1  0.72561522  0.62498351  0.60636348  1
  H  H710  1  0.67492274  0.80573599  0.66666313  1
  C  C711  1  0.63811904  0.95037734  0.65303883  1
  H  H712  1  0.72675487  0.59967172  0.56855276  1
  C  C713  1  0.60552481  0.85938359  0.51422940  1
  C  C714  1  0.71631863  0.97146264  0.70355073  1
  C  C715  1  0.59819862  0.98582247  0.57614994  1
  H  H716  1  0.73663142  0.94751915  0.67202986  1
  H  H717  1  0.64158913  0.79185609  0.74113538  1
  H  H718  1  0.61247625  0.50292019  0.68596864  1
  C  C719  1  0.66308204  0.98890396  0.69879884  1
  C  C720  1  0.75432778  0.73315858  0.67297617  1
  H  H721  1  0.93490578  0.51124596  0.69090500  1
  O  O722  1  0.96394294  0.78937741  0.51099413  1
  H  H723  1  0.91809600  0.67179413  0.56948317  1
  C  C724  1  0.88436104  0.71838264  0.57092765  1
  C  C725  1  0.83745631  0.95878446  0.72458503  1
  C  C726  1  0.92350616  0.83945656  0.51223557  1
  C  C727  1  0.79675586  0.74745410  0.59284399  1
  C  C728  1  0.87953900  0.80374344  0.54093057  1
  H  H729  1  0.91568852  0.91138254  0.70857440  1
  H  H730  1  0.75523747  0.87287835  0.56100641  1
  C  C731  1  0.75469417  0.70189994  0.62514365  1
  C  C732  1  0.84065390  0.68286773  0.59522364  1
  H  H733  1  0.84244272  0.61884605  0.61959194  1
  H  H734  1  0.78097150  0.79580641  0.68491737  1
  H  H735  1  0.82991974  0.92280687  0.50999422  1
  C  C736  1  0.79135208  0.83179503  0.56287829  1
  C  C737  1  0.83409452  0.85620921  0.53480497  1
  C  C738  1  0.88399927  0.91176499  0.73415097  1
  H  H739  1  0.82901315  0.99303693  0.69081345  1
  H  H740  1  0.99347100  0.93754306  0.65791046  1
  H  H741  1  0.63775622  0.86521543  0.82439069  1
  C  C742  1  0.67018876  0.82132213  0.81288115  1
  C  C743  1  0.71096268  0.80349078  0.84424127  1
  C  C744  1  0.70980164  0.85128836  0.89276299  1
  O  O745  1  0.67080651  0.91145473  0.90024264  1
  Cu  Cu746  1  0.61177652  0.87010897  0.94258791  1
  O  O747  1  0.58165770  0.66318105  0.88993384  1
  C  C748  1  0.66554632  0.57408211  0.84779671  1
  C  C749  1  0.66805087  0.62133666  0.89192954  1
  C  C750  1  0.62460217  0.67105742  0.91224782  1
  O  O751  1  0.54183632  0.88412071  0.92008596  1
  H  H752  1  0.62715431  0.56639628  0.83083794  1
  Cu  Cu753  1  0.52191764  0.62264728  0.92263951  1
  C  C754  1  0.67173989  0.77908140  0.76795079  1
  C  C755  1  0.71446479  0.61546191  0.91920895  1
  H  H756  1  0.71592693  0.64798300  0.95296714  1
  O  O757  1  0.62572801  0.72767698  0.94765107  1
  O  O758  1  0.74704131  0.84831299  0.91652776  1
  H  H759  1  0.51172663  0.76334931  0.85087587  1
  C  C760  1  0.70939538  0.52767813  0.82939804  1
  C  C761  1  0.71483581  0.72412168  0.75489490  1
  O  O762  1  0.61650180  0.95212199  0.99434060  1
  C  C763  1  0.73974221  0.98742993  0.75035882  1
  O  O764  1  0.98824994  0.59332355  0.81288605  1
  C  C765  1  0.75489583  0.74858335  0.83088419  1
  C  C766  1  0.75701237  0.70668793  0.78625905  1
  C  C767  1  0.80528245  0.50927714  0.83011070  1
  C  C768  1  0.76037474  0.57830363  0.90135318  1
  C  C769  1  0.75629061  0.54154052  0.85408403  1
  H  H770  1  0.79134079  0.66911260  0.77506155  1
  C  C771  1  0.79484682  0.95483386  0.75803165  1
  H  H772  1  0.80315782  0.73450141  0.96103884  1
  O  O773  1  0.94935403  0.61260189  0.96654585  1
  H  H774  1  0.77505407  0.52941468  0.75478032  1
  H  H775  1  0.85686777  0.80561037  0.84097767  1
  H  H776  1  0.79632317  0.57931537  0.92088417  1
  C  C777  1  0.87243960  0.66831432  0.99563902  1
  C  C778  1  0.90513074  0.64351887  0.95510767  1
  C  C779  1  0.89093697  0.86096507  0.77842895  1
  C  C780  1  0.80500371  0.91180384  0.80453609  1
  C  C781  1  0.82115253  0.70639889  0.99408351  1
  O  O782  1  0.97806601  0.80723969  0.77336712  1
  H  H783  1  0.77282245  0.91130553  0.82930568  1
  C  C784  1  0.85141825  0.85877343  0.81124424  1
  O  O785  1  0.93386974  0.76416294  0.83665100  1
  C  C786  1  0.93904316  0.81101511  0.79453764  1
  Cu  Cu787  1  0.99459423  0.57235551  0.92228544  1
  H  H788  1  0.78710114  0.74282958  0.85462302  1
  O  O789  1  0.89331837  0.65878629  0.91204417  1
  Cu  Cu790  1  0.93670262  0.63082090  0.85841627  1
  C  C791  1  0.80628790  0.50285630  0.77977440  1
