# generated using pymatgen
data_Zn8H21(C28O15)2
_symmetry_space_group_name_H-M   'P 1'
_cell_length_a   53.68961134
_cell_length_b   54.32009025
_cell_length_c   53.53986557
_cell_angle_alpha   90.00000000
_cell_angle_beta   90.00000000
_cell_angle_gamma   90.00000000
_symmetry_Int_Tables_number   1
_chemical_formula_structural   Zn8H21(C28O15)2
_chemical_formula_sum   'Zn384 H1008 C2688 O1440'
_cell_volume   156144.97747494
_cell_formula_units_Z   48
loop_
 _symmetry_equiv_pos_site_id
 _symmetry_equiv_pos_as_xyz
  1  'x, y, z'
loop_
 _atom_site_type_symbol
 _atom_site_label
 _atom_site_symmetry_multiplicity
 _atom_site_fract_x
 _atom_site_fract_y
 _atom_site_fract_z
 _atom_site_occupancy
  Zn  Zn0  1  0.21432767  0.10847267  0.10547134  1
  Zn  Zn1  1  0.24377461  0.05856693  0.11310559  1
  H  H2  1  0.24831066  0.03708982  0.00572673  1
  O  O3  1  0.24794751  0.09427677  0.10267473  1
  O  O4  1  0.20441173  0.05037015  0.10588364  1
  O  O5  1  0.18456333  0.08387041  0.11227917  1
  C  C6  1  0.18680155  0.06088543  0.11677625  1
  O  O7  1  0.24565126  0.06234264  0.04708837  1
  C  C8  1  0.25272452  0.01966188  0.01616647  1
  Zn  Zn9  1  0.25159939  0.09879329  0.06641139  1
  C  C10  1  0.25460875  0.02003514  0.04185608  1
  C  C11  1  0.25059294  0.04231011  0.05703505  1
  O  O12  1  0.25698197  0.04021482  0.07994687  1
  O  O13  1  0.28785156  0.11068887  0.05121004  1
  Zn  Zn14  1  0.27434123  0.11659803  0.11809111  1
  O  O15  1  0.05537887  0.21061705  0.09932940  1
  Zn  Zn16  1  0.11363754  0.21219053  0.10578888  1
  O  O17  1  0.08536971  0.18560876  0.11239061  1
  C  C18  1  0.06383589  0.19390163  0.11263502  1
  O  O19  1  0.10749226  0.24793590  0.09703911  1
  Zn  Zn20  1  0.06964426  0.24725534  0.10028197  1
  C  C21  1  0.05222914  0.24512643  0.01722658  1
  O  O22  1  0.08377948  0.23700629  0.04652191  1
  C  C23  1  0.06243716  0.24606602  0.04323878  1
  H  H24  1  0.01645342  0.19401362  0.11533390  1
  O  O25  1  0.23095308  0.12611789  0.04761398  1
  O  O26  1  0.13357374  0.21632887  0.04697153  1
  O  O27  1  0.21467816  0.14098357  0.08141120  1
  C  C28  1  0.21572712  0.14046826  0.05776705  1
  O  O29  1  0.14716518  0.19704320  0.08003598  1
  C  C30  1  0.14765809  0.20093191  0.05693269  1
  C  C31  1  0.19689478  0.15267890  0.01686034  1
  C  C32  1  0.19684542  0.15430552  0.04262866  1
  H  H33  1  0.18214667  0.17106276  0.07524508  1
  C  C34  1  0.17891176  0.16908595  0.05484610  1
  C  C35  1  0.16281900  0.18344642  0.04126815  1
  C  C36  1  0.16141776  0.18269392  0.01496737  1
  C  C37  1  0.23770734  0.23044509  0.08665188  1
  C  C38  1  0.22038835  0.22709917  0.04533358  1
  C  C39  1  0.23792457  0.22010442  0.06269389  1
  H  H40  1  0.21123282  0.14224853  0.00760548  1
  H  H41  1  0.14904986  0.19517826  0.00487548  1
  C  C42  1  0.17833735  0.16657156  0.00354929  1
  C  C43  1  0.19950408  0.24099009  0.05228833  1
  C  C44  1  0.21645457  0.24240677  0.09557350  1
  H  H45  1  0.21275741  0.24861354  0.11528500  1
  C  C46  1  0.19824275  0.24643297  0.07771151  1
  H  H47  1  0.18337078  0.24196476  0.04086964  1
  C  C48  1  0.21898463  0.21785660  0.01791986  1
  O  O49  1  0.20414222  0.22680089  0.00353767  1
  O  O50  1  0.23463308  0.20250641  0.01117710  1
  O  O51  1  0.29649861  0.12973171  0.08705026  1
  H  H52  1  0.25523317  0.18511646  0.10842909  1
  C  C53  1  0.29559547  0.12931547  0.06326297  1
  H  H54  1  0.29825864  0.13630710  0.01188453  1
  H  H55  1  0.25355265  0.20811761  0.05689616  1
  C  C56  1  0.30738596  0.14963318  0.04900158  1
  H  H57  1  0.32216557  0.16743512  0.08376864  1
  C  C58  1  0.31965610  0.16811858  0.06326341  1
  C  C59  1  0.30635725  0.15187142  0.02317853  1
  C  C60  1  0.32949952  0.18818940  0.05072927  1
  C  C61  1  0.31805085  0.17142432  0.01100070  1
  C  C62  1  0.32797782  0.19108437  0.02482085  1
  H  H63  1  0.33352106  0.20754574  0.01466456  1
  C  C64  1  0.34317089  0.20768421  0.06518880  1
  O  O65  1  0.35054168  0.20429410  0.08682550  1
  O  O66  1  0.35145031  0.22497452  0.05166857  1
  C  C67  1  0.26138544  0.22410259  0.10145712  1
  C  C68  1  0.26895982  0.20024339  0.10971612  1
  C  C69  1  0.30278174  0.23791249  0.11338239  1
  C  C70  1  0.27981173  0.24250870  0.10207136  1
  C  C71  1  0.29160903  0.19674164  0.12131494  1
  C  C72  1  0.30892801  0.21526968  0.12466160  1
  Zn  Zn73  1  0.37326290  0.22203965  0.11513707  1
  O  O74  1  0.44114329  0.21418997  0.11196662  1
  O  O75  1  0.40706370  0.23842383  0.03803067  1
  C  C76  1  0.42966813  0.24264277  0.04130189  1
  C  C77  1  0.44516484  0.24337904  0.01842316  1
  O  O78  1  0.40622167  0.19592032  0.12159284  1
  C  C79  1  0.42853641  0.19776008  0.12489304  1
  O  O80  1  0.44036333  0.24475047  0.06191823  1
  Zn  Zn81  1  0.11911406  0.25293424  0.06015898  1
  C  C82  1  0.02707781  0.25162996  0.01501818  1
  O  O83  1  0.05017073  0.25195172  0.06217523  1
  H  H84  1  0.01864878  0.25485676  0.03257189  1
  O  O85  1  0.11309664  0.29382746  0.06077590  1
  O  O86  1  0.06044624  0.27777444  0.11979232  1
  C  C87  1  0.12843499  0.30697442  0.07145701  1
  O  O88  1  0.13022445  0.30838831  0.09478923  1
  C  C89  1  0.17327405  0.25851318  0.08345721  1
  O  O90  1  0.15955493  0.26314219  0.06563241  1
  H  H91  1  0.12921491  0.31325682  0.01916510  1
  Zn  Zn92  1  0.12691892  0.27352786  0.11606623  1
  O  O93  1  0.16650254  0.26311537  0.10523838  1
  C  C94  1  0.15955124  0.34116318  0.06861019  1
  H  H95  1  0.16034787  0.34182130  0.08886267  1
  C  C96  1  0.14217768  0.32641460  0.05598142  1
  C  C97  1  0.14093334  0.32622502  0.03013947  1
  C  C98  1  0.15831858  0.34033019  0.01733597  1
  C  C99  1  0.17349422  0.35772105  0.05491349  1
  C  C100  1  0.17411282  0.35771301  0.02865479  1
  O  O101  1  0.19048660  0.36977339  0.09251011  1
  C  C102  1  0.19140030  0.37290168  0.06929080  1
  H  H103  1  0.18552673  0.37083956  0.01853543  1
  C  C104  1  0.30937547  0.34009764  0.06629821  1
  C  C105  1  0.32909783  0.33010013  0.07864205  1
  C  C106  1  0.34616991  0.31852228  0.06162568  1
  C  C107  1  0.34385693  0.31966786  0.03598007  1
  C  C108  1  0.30541774  0.34182291  0.04018801  1
  C  C109  1  0.32336486  0.33159680  0.02487112  1
  H  H110  1  0.33155559  0.32694270  0.09903995  1
  H  H111  1  0.35784445  0.30958947  0.02637647  1
  H  H112  1  0.28870363  0.35030562  0.03278979  1
  O  O113  1  0.28950829  0.35051564  0.10362829  1
  C  C114  1  0.28812969  0.35082735  0.08011994  1
  H  H115  1  0.27677330  0.25936234  0.09300415  1
  C  C116  1  0.36696245  0.30372443  0.07130568  1
  O  O117  1  0.37142479  0.30742089  0.09369467  1
  O  O118  1  0.31576476  0.27984253  0.10564417  1
  C  C119  1  0.32058511  0.25903205  0.11165458  1
  O  O120  1  0.26925820  0.35966283  0.07004514  1
  O  O121  1  0.34243332  0.25365671  0.12182606  1
  Zn  Zn122  1  0.42792263  0.25078372  0.10136720  1
  Zn  Zn123  1  0.38011923  0.25061716  0.06629393  1
  C  C124  1  0.46993849  0.25175135  0.02167042  1
  H  H125  1  0.47900844  0.25401997  0.03932529  1
  C  C126  1  0.48467100  0.25380609  0.00032883  1
  O  O127  1  0.37992616  0.28916605  0.05854914  1
  Zn  Zn128  1  0.37971007  0.27754790  0.12120581  1
  O  O129  1  0.39227273  0.25002627  0.10024989  1
  O  O130  1  0.44252418  0.28164549  0.12312622  1
  O  O131  1  0.20880977  0.38391854  0.05859265  1
  Zn  Zn132  1  0.24509897  0.39344330  0.07761382  1
  O  O133  1  0.24410065  0.39290101  0.11546267  1
  H  H134  1  0.26458669  0.45244212  0.02085135  1
  C  C135  1  0.26357204  0.49215090  0.01934405  1
  O  O136  1  0.26394347  0.42520137  0.05861955  1
  C  C137  1  0.26544437  0.46944868  0.03181241  1
  C  C138  1  0.26887763  0.46947016  0.05773578  1
  C  C139  1  0.26804703  0.44522885  0.07098664  1
  O  O140  1  0.27032989  0.44573735  0.09398015  1
  C  C141  1  0.27059825  0.49130646  0.07060888  1
  H  H142  1  0.27552556  0.49226974  0.09034052  1
  O  O143  1  0.09419610  0.10122314  0.23354384  1
  Zn  Zn144  1  0.10065540  0.06444860  0.23390406  1
  Zn  Zn145  1  0.11379276  0.11644911  0.20390567  1
  Zn  Zn146  1  0.05842657  0.10784810  0.23768190  1
  O  O147  1  0.10734430  0.05193736  0.19657578  1
  C  C148  1  0.04275609  0.05424454  0.22558785  1
  O  O149  1  0.11229134  0.08515474  0.17376391  1
  O  O150  1  0.06342771  0.04336187  0.22612773  1
  C  C151  1  0.01899380  0.04121314  0.23253444  1
  O  O152  1  0.04093253  0.07614005  0.21994781  1
  C  C153  1  0.02029590  0.01616745  0.23835308  1
  C  C154  1  0.11713390  0.06319694  0.17895962  1
  H  H155  1  0.03838496  0.00808855  0.23897149  1
  H  H156  1  0.12903830  0.01635551  0.18575933  1
  H  H157  1  0.18862629  0.01377350  0.13015262  1
  C  C158  1  0.13716167  0.04928652  0.16413368  1
  C  C159  1  0.15858739  0.01016128  0.15823262  1
  C  C160  1  0.14039827  0.02474499  0.17125837  1
  H  H161  1  0.14778929  0.08263120  0.14142859  1
  C  C162  1  0.16906185  0.04812808  0.13423959  1
  C  C163  1  0.17312880  0.02280586  0.13892277  1
  C  C164  1  0.15092685  0.06186805  0.14605833  1
  O  O165  1  0.16409841  0.00783188  0.24069497  1
  C  C166  1  0.20816784  0.12485452  0.23844864  1
  C  C167  1  0.22235138  0.11878025  0.18842985  1
  C  C168  1  0.19092763  0.11899929  0.22037681  1
  C  C169  1  0.16424109  0.11213223  0.22738761  1
  O  O170  1  0.15136550  0.10038217  0.21218450  1
  H  H171  1  0.18263017  0.10729006  0.18250403  1
  C  C172  1  0.19760680  0.11502452  0.19519977  1
  C  C173  1  0.22905012  0.11874710  0.16047671  1
  O  O174  1  0.21069197  0.11613118  0.14621820  1
  O  O175  1  0.23384647  0.00217460  0.16529599  1
  O  O176  1  0.15682280  0.12087274  0.24762496  1
  O  O177  1  0.27695648  0.04985069  0.13004072  1
  O  O178  1  0.29381183  0.08607867  0.13775076  1
  C  C179  1  0.29254188  0.06348378  0.14157445  1
  H  H180  1  0.29745164  0.01484100  0.14997091  1
  C  C181  1  0.32558605  0.01407876  0.17868657  1
  C  C182  1  0.34292291  0.05475166  0.18852221  1
  C  C183  1  0.32664106  0.06690829  0.17229039  1
  H  H184  1  0.32812831  0.08750733  0.17172402  1
  C  C185  1  0.31024468  0.05231188  0.15885144  1
  C  C186  1  0.31004722  0.02612115  0.16126889  1
  C  C187  1  0.34276148  0.02925505  0.19157268  1
  H  H188  1  0.35456594  0.01900091  0.20557364  1
  H  H189  1  0.28398638  0.12341575  0.22511895  1
  C  C190  1  0.36218390  0.06998922  0.20177790  1
  O  O191  1  0.36189634  0.09230511  0.19660453  1
  O  O192  1  0.25047295  0.12278642  0.15353916  1
  O  O193  1  0.33218310  0.12455840  0.23457155  1
  Zn  Zn194  1  0.37127106  0.12401153  0.21944003  1
  O  O195  1  0.37703768  0.06160726  0.21767515  1
  O  O196  1  0.39278502  0.11154797  0.24769190  1
  Zn  Zn197  1  0.39521379  0.07619369  0.24887893  1
  H  H198  1  0.45875382  0.02371159  0.24140198  1
  C  C199  1  0.49999869  0.02046622  0.24489327  1
  C  C200  1  0.47692468  0.03232263  0.24515670  1
  O  O201  1  0.43243517  0.05924746  0.24513106  1
  O  O202  1  0.05026513  0.13903822  0.21138764  1
  O  O203  1  0.08212907  0.13722977  0.18589142  1
  C  C204  1  0.06031715  0.14258390  0.19118127  1
  C  C205  1  0.04881587  0.18160334  0.13399396  1
  H  H206  1  0.01117973  0.15647920  0.19107080  1
  C  C207  1  0.00966658  0.17527735  0.15411305  1
  C  C208  1  0.02331759  0.18442160  0.13320870  1
  H  H209  1  0.08085061  0.16295669  0.14929332  1
  C  C210  1  0.06112538  0.16665044  0.15123886  1
  C  C211  1  0.04707127  0.15706457  0.17058512  1
  C  C212  1  0.02181536  0.16323262  0.17384902  1
  O  O213  1  0.11794488  0.16127846  0.24274813  1
  C  C214  1  0.12357775  0.16787448  0.22104883  1
  C  C215  1  0.12410026  0.19486795  0.21363276  1
  C  C216  1  0.12233665  0.21198073  0.23328496  1
  C  C217  1  0.12355490  0.23746080  0.22749614  1
  C  C218  1  0.12471622  0.24549137  0.20319232  1
  C  C219  1  0.23355619  0.12788208  0.23256890  1
  C  C220  1  0.23934067  0.12519867  0.20634435  1
  O  O221  1  0.12696986  0.15273984  0.20397328  1
  C  C222  1  0.12774001  0.20276200  0.18905329  1
  H  H223  1  0.13068324  0.19115829  0.17393270  1
  C  C224  1  0.12783879  0.22816993  0.18379044  1
  C  C225  1  0.13125883  0.23703024  0.15728421  1
  O  O226  1  0.13033447  0.21938376  0.14129868  1
  O  O227  1  0.27733527  0.15670111  0.12647341  1
  C  C228  1  0.29501013  0.17053471  0.13211769  1
  C  C229  1  0.27866774  0.12631383  0.24445441  1
  H  H230  1  0.25710953  0.13224260  0.19953508  1
  H  H231  1  0.32508956  0.21330684  0.13580233  1
  O  O232  1  0.31325372  0.16331827  0.14311789  1
  O  O233  1  0.37359077  0.21851786  0.15355358  1
  O  O234  1  0.36623952  0.16408939  0.22266597  1
  H  H235  1  0.37421177  0.19466383  0.19186256  1
  C  C236  1  0.37962460  0.17598054  0.23762932  1
  C  C237  1  0.38210809  0.20762378  0.20366919  1
  C  C238  1  0.38614771  0.20158393  0.22822251  1
  C  C239  1  0.38045973  0.23638373  0.16803360  1
  C  C240  1  0.38785895  0.23156435  0.19489670  1
  O  O241  1  0.44016270  0.12908443  0.21353826  1
  H  H242  1  0.47745551  0.20219545  0.13529522  1
  C  C243  1  0.40413579  0.24323019  0.23428520  1
  O  O244  1  0.40643343  0.13022088  0.19202293  1
  C  C245  1  0.42822738  0.13548937  0.19474861  1
  H  H246  1  0.47429755  0.14249533  0.19290697  1
  C  C247  1  0.46749360  0.18790912  0.14633590  1
  C  C248  1  0.44132381  0.15335528  0.17737779  1
  C  C249  1  0.46677903  0.15592735  0.17934064  1
  H  H250  1  0.40822499  0.16394354  0.15769984  1
  C  C251  1  0.44174662  0.18320917  0.14393704  1
  C  C252  1  0.42876685  0.16650657  0.15914312  1
  C  C253  1  0.48011021  0.17354478  0.16447553  1
  C  C254  1  0.39890466  0.21836150  0.24242848  1
  C  C255  1  0.39880565  0.24960405  0.21011288  1
  H  H256  1  0.02213696  0.29447390  0.13722814  1
  C  C257  1  0.07304146  0.29223306  0.13333461  1
  O  O258  1  0.09551256  0.29063436  0.13696234  1
  C  C259  1  0.03138041  0.30914022  0.14711798  1
  C  C260  1  0.05736833  0.31042470  0.14797724  1
  C  C261  1  0.05504821  0.34219137  0.17977586  1
  C  C262  1  0.06891139  0.32562782  0.16446572  1
  H  H263  1  0.08929202  0.32495848  0.16803037  1
  C  C264  1  0.01823401  0.32658249  0.16146219  1
  C  C265  1  0.02974480  0.34461731  0.17710980  1
  C  C266  1  0.06928472  0.35751263  0.19739298  1
  H  H267  1  0.01924096  0.35882333  0.18790914  1
  O  O268  1  0.09258994  0.35830199  0.19661193  1
  O  O269  1  0.05713653  0.36726234  0.21528468  1
  H  H270  1  0.12096054  0.28823091  0.22647977  1
  C  C271  1  0.12168330  0.28140900  0.24549203  1
  C  C272  1  0.12286525  0.25544645  0.24888843  1
  O  O273  1  0.11823256  0.33387030  0.24174495  1
  Zn  Zn274  1  0.11863106  0.37281930  0.22415909  1
  H  H275  1  0.12550394  0.26404184  0.19739388  1
  O  O276  1  0.13433573  0.25824094  0.15090281  1
  C  C277  1  0.23804070  0.36062883  0.17434795  1
  O  O278  1  0.21981503  0.35886528  0.15979512  1
  C  C279  1  0.23162485  0.36417868  0.20225888  1
  C  C280  1  0.20710097  0.36831679  0.20848483  1
  H  H281  1  0.19184131  0.36826307  0.19546345  1
  C  C282  1  0.24203991  0.36860974  0.24502662  1
  C  C283  1  0.20012467  0.37332692  0.23355890  1
  C  C284  1  0.17253235  0.37381249  0.24017433  1
  O  O285  1  0.15805658  0.37326900  0.22203314  1
  C  C286  1  0.24978247  0.36461855  0.22048116  1
  O  O287  1  0.25975211  0.35714775  0.16739704  1
  H  H288  1  0.26983884  0.36343954  0.21603699  1
  H  H289  1  0.29570588  0.37023562  0.24031278  1
  Zn  Zn290  1  0.27085603  0.37316931  0.13051635  1
  O  O291  1  0.38127035  0.25704355  0.16048661  1
  H  H292  1  0.38484924  0.29094727  0.24264766  1
  O  O293  1  0.44380384  0.34680051  0.23802766  1
  Zn  Zn294  1  0.38049849  0.36575631  0.23631041  1
  H  H295  1  0.40465363  0.26764464  0.20211773  1
  O  O296  1  0.40842945  0.29929024  0.13815621  1
  C  C297  1  0.48572575  0.31467759  0.18019311  1
  H  H298  1  0.48238982  0.29396743  0.14421205  1
  H  H299  1  0.47939505  0.33331602  0.21688396  1
  C  C300  1  0.43127127  0.29449175  0.13882597  1
  O  O301  1  0.40911121  0.34731065  0.21527071  1
  C  C302  1  0.43135383  0.34130202  0.21873239  1
  H  H303  1  0.41167635  0.32256572  0.17642798  1
  C  C304  1  0.44628960  0.30582588  0.15952572  1
  C  C305  1  0.47120239  0.32580277  0.19941177  1
  C  C306  1  0.44559610  0.32821220  0.19755378  1
  C  C307  1  0.47224321  0.30413390  0.15979260  1
  C  C308  1  0.43269109  0.31865474  0.17769005  1
  O  O309  1  0.11360888  0.45175475  0.22238344  1
  O  O310  1  0.21129956  0.44227291  0.13298105  1
  Zn  Zn311  1  0.21185770  0.37819762  0.12582876  1
  Zn  Zn312  1  0.24779179  0.42726086  0.12619170  1
  O  O313  1  0.12525600  0.41687841  0.20510309  1
  C  C314  1  0.12664848  0.43950925  0.20751975  1
  O  O315  1  0.19289052  0.40882082  0.14685349  1
  C  C316  1  0.15870392  0.43680593  0.17446719  1
  H  H317  1  0.13295762  0.48914990  0.19787191  1
  H  H318  1  0.19233534  0.47934389  0.14139237  1
  C  C319  1  0.19382856  0.43140258  0.14307478  1
  C  C320  1  0.17799855  0.47241060  0.15421154  1
  H  H321  1  0.15615773  0.41717049  0.17842459  1
  C  C322  1  0.16181623  0.48763828  0.16878074  1
  C  C323  1  0.14389122  0.47788703  0.18525433  1
  C  C324  1  0.17587491  0.44740293  0.15842688  1
  C  C325  1  0.14362176  0.45270045  0.18857418  1
  H  H326  1  0.36538402  0.49861921  0.20874657  1
  H  H327  1  0.29928701  0.46500475  0.16486962  1
  C  C328  1  0.32869405  0.46929283  0.19234468  1
  O  O329  1  0.37447648  0.39445578  0.20930196  1
  C  C330  1  0.34589874  0.45498550  0.20687091  1
  H  H331  1  0.33806111  0.39635198  0.18303028  1
  O  O332  1  0.27777694  0.43201316  0.15065899  1
  C  C333  1  0.37108204  0.41675869  0.21350064  1
  H  H334  1  0.35897943  0.46222165  0.22151168  1
  C  C335  1  0.33027136  0.49648163  0.18750180  1
  C  C336  1  0.31520350  0.42985162  0.17405974  1
  C  C337  1  0.29634570  0.41833511  0.15704150  1
  C  C338  1  0.33499963  0.41644828  0.18527789  1
  C  C339  1  0.31227631  0.45550638  0.17746034  1
  C  C340  1  0.35029034  0.42988085  0.20060635  1
  O  O341  1  0.29709571  0.39603777  0.15225977  1
  C  C342  1  0.45539823  0.42932127  0.24483184  1
  O  O343  1  0.38105344  0.43014573  0.22967385  1
  O  O344  1  0.45482650  0.40656682  0.24180996  1
  H  H345  1  0.46150008  0.47792997  0.24833639  1
  C  C346  1  0.48000613  0.44250692  0.24395706  1
  C  C347  1  0.47926392  0.46747749  0.24768420  1
  O  O348  1  0.11042480  0.05592185  0.27002303  1
  Zn  Zn349  1  0.11352071  0.12490577  0.25872354  1
  O  O350  1  0.11327474  0.09352445  0.28497835  1
  C  C351  1  0.12088363  0.07210377  0.28337363  1
  O  O352  1  0.04623629  0.12214562  0.27238305  1
  C  C353  1  0.16805305  0.00147593  0.32297947  1
  H  H354  1  0.13267358  0.02799014  0.29060388  1
  C  C355  1  0.14437033  0.03860477  0.30284749  1
  C  C356  1  0.14077764  0.06343680  0.30098294  1
  C  C357  1  0.17105472  0.06989431  0.33159996  1
  C  C358  1  0.15583901  0.08024762  0.31389035  1
  H  H359  1  0.15399466  0.09935059  0.31058343  1
  C  C360  1  0.17441807  0.04487963  0.33651440  1
  C  C361  1  0.16183117  0.02867577  0.32083398  1
  C  C362  1  0.18698647  0.08434191  0.35056331  1
  O  O363  1  0.18826370  0.10678175  0.34649659  1
  H  H364  1  0.18812460  0.03827397  0.35137006  1
  C  C365  1  0.22692702  0.01705475  0.30523340  1
  C  C366  1  0.20854932  0.02568211  0.28966783  1
  H  H367  1  0.20138758  0.04480921  0.29000564  1
  C  C368  1  0.19830530  0.00998133  0.27127942  1
  O  O369  1  0.20023361  0.07359976  0.36655572  1
  C  C370  1  0.17859602  0.02075535  0.25252502  1
  O  O371  1  0.17534230  0.04297952  0.25384166  1
  O  O372  1  0.23683146  0.05558145  0.32723600  1
  Zn  Zn373  1  0.24139572  0.06831517  0.36835545  1
  C  C374  1  0.24139831  0.03286771  0.32457570  1
  H  H375  1  0.20041865  0.00651337  0.34865308  1
  O  O376  1  0.25379619  0.02229462  0.34066464  1
  C  C377  1  0.33103217  0.02252258  0.32747059  1
  C  C378  1  0.33557605  0.07626889  0.33370231  1
  H  H379  1  0.33999303  0.09531134  0.33811899  1
  C  C380  1  0.31720864  0.06248363  0.34589258  1
  C  C381  1  0.35015095  0.06318836  0.31671894  1
  C  C382  1  0.31441799  0.03716323  0.34199879  1
  C  C383  1  0.34701411  0.03802088  0.31397578  1
  H  H384  1  0.29906446  0.02722482  0.35159472  1
  C  C385  1  0.29909083  0.07792794  0.36074906  1
  O  O386  1  0.30245921  0.10035891  0.36534650  1
  H  H387  1  0.35995699  0.03055876  0.30033090  1
  O  O388  1  0.28222316  0.06747677  0.37224435  1
  C  C389  1  0.36952433  0.07862082  0.30209536  1
  O  O390  1  0.37008211  0.10045061  0.30685051  1
  O  O391  1  0.38448350  0.06777368  0.28837268  1
  O  O392  1  0.45359214  0.09277731  0.25777660  1
  C  C393  1  0.47646363  0.05667733  0.25133886  1
  C  C394  1  0.45189431  0.07067555  0.25077236  1
  Zn  Zn395  1  0.42785693  0.12016290  0.25136128  1
  H  H396  1  0.49944102  0.08948048  0.26096719  1
  C  C397  1  0.49878282  0.06979041  0.25559598  1
  O  O398  1  0.08140093  0.13840920  0.28464148  1
  H  H399  1  0.01089661  0.13707741  0.29527898  1
  C  C400  1  0.05891626  0.13488804  0.28743877  1
  C  C401  1  0.06117598  0.16809244  0.31984039  1
  H  H402  1  0.08197134  0.16534413  0.32004890  1
  C  C403  1  0.04645170  0.15314079  0.30459058  1
  C  C404  1  0.02088501  0.15148590  0.30624393  1
  C  C405  1  0.00739283  0.16581933  0.32323294  1
  C  C406  1  0.02179389  0.18376190  0.33666893  1
  C  C407  1  0.04822717  0.18440009  0.33543441  1
  H  H408  1  0.01308069  0.19720005  0.34907930  1
  C  C409  1  0.06419747  0.20108894  0.35019019  1
  O  O410  1  0.08774516  0.20009595  0.34727957  1
  O  O411  1  0.05493681  0.21533487  0.36610240  1
  H  H412  1  0.12017065  0.20686519  0.25292418  1
  Zn  Zn413  1  0.12199498  0.21655439  0.36756237  1
  C  C414  1  0.12392905  0.24573534  0.27356736  1
  H  H415  1  0.20005902  0.12708722  0.25697464  1
  O  O416  1  0.12872137  0.23027366  0.32604635  1
  H  H417  1  0.12797127  0.22582191  0.27580180  1
  C  C418  1  0.24837567  0.13289735  0.27732289  1
  H  H419  1  0.22848429  0.13444729  0.28219817  1
  Zn  Zn420  1  0.21882399  0.12577587  0.36560334  1
  O  O421  1  0.23778760  0.13929516  0.33024958  1
  O  O422  1  0.16174105  0.22862560  0.37258720  1
  C  C423  1  0.17764079  0.24567155  0.37320961  1
  C  C424  1  0.25335636  0.12927908  0.25164065  1
  C  C425  1  0.29679862  0.12978596  0.26245221  1
  C  C426  1  0.32422151  0.12975190  0.25549190  1
  C  C427  1  0.29107313  0.13251986  0.28785795  1
  C  C428  1  0.26648400  0.13495042  0.29582365  1
  O  O429  1  0.33858344  0.13407773  0.27351794  1
  H  H430  1  0.30643155  0.13307623  0.30156058  1
  C  C431  1  0.25951080  0.13749801  0.32394224  1
  O  O432  1  0.27818161  0.13883808  0.33746704  1
  O  O433  1  0.34093633  0.24835871  0.37260677  1
  O  O434  1  0.38732307  0.16683281  0.25748325  1
  H  H435  1  0.40355134  0.21314282  0.26128517  1
  Zn  Zn436  1  0.37798601  0.13032086  0.27781210  1
  O  O437  1  0.44016686  0.14317885  0.28275931  1
  O  O438  1  0.40529418  0.14323518  0.30358810  1
  C  C439  1  0.42678022  0.15229260  0.29948147  1
  C  C440  1  0.43611414  0.17389852  0.31433154  1
  C  C441  1  0.42060997  0.18820080  0.32912192  1
  H  H442  1  0.40109424  0.18464764  0.33222515  1
  C  C443  1  0.46231719  0.17439044  0.31316393  1
  H  H444  1  0.47224913  0.15894856  0.30418990  1
  C  C445  1  0.47550925  0.19258262  0.32664497  1
  C  C446  1  0.46107893  0.20854964  0.34077708  1
  C  C447  1  0.43487181  0.20488157  0.34294698  1
  H  H448  1  0.44389666  0.23916683  0.26675991  1
  H  H449  1  0.46972136  0.22202604  0.35320464  1
  O  O450  1  0.39747505  0.22528885  0.35964952  1
  C  C451  1  0.42045355  0.22193926  0.36079854  1
  O  O452  1  0.43426382  0.23430013  0.37378752  1
  C  C453  1  0.01800652  0.32336312  0.33691418  1
  H  H454  1  0.09059259  0.32851965  0.34049413  1
  C  C455  1  0.07043626  0.32896413  0.33815753  1
  C  C456  1  0.05682698  0.34394583  0.32251507  1
  C  C457  1  0.03226065  0.30839942  0.35346025  1
  C  C458  1  0.03151196  0.34034154  0.32196474  1
  C  C459  1  0.05764263  0.31286699  0.35457835  1
  H  H460  1  0.02030999  0.35015343  0.30890489  1
  C  C461  1  0.07265427  0.36209028  0.30759676  1
  H  H462  1  0.02287759  0.29433628  0.36478448  1
  O  O463  1  0.09576749  0.36457667  0.30896174  1
  C  C464  1  0.07340575  0.29827801  0.37249692  1
  O  O465  1  0.05945442  0.37228191  0.29207930  1
  O  O466  1  0.09621547  0.29943544  0.37312580  1
  C  C467  1  0.12422849  0.26215402  0.29454087  1
  H  H468  1  0.12185488  0.29962511  0.30669761  1
  C  C469  1  0.12238577  0.28712929  0.29069162  1
  C  C470  1  0.12114667  0.29606771  0.26606090  1
  C  C471  1  0.11892310  0.32350065  0.26179899  1
  O  O472  1  0.12274508  0.33605502  0.28179847  1
  C  C473  1  0.12712446  0.25228990  0.32051553  1
  O  O474  1  0.12583736  0.26968179  0.33638287  1
  H  H475  1  0.23429451  0.36169160  0.29361022  1
  O  O476  1  0.24256971  0.36382987  0.34361110  1
  O  O477  1  0.17054990  0.26671259  0.37261976  1
  C  C478  1  0.21691140  0.37286578  0.25310804  1
  C  C479  1  0.26457988  0.36309143  0.33631002  1
  C  C480  1  0.27218552  0.36514620  0.30931924  1
  C  C481  1  0.25394970  0.36571187  0.29010697  1
  O  O482  1  0.34600763  0.37145427  0.29386474  1
  C  C483  1  0.30445462  0.37030030  0.27901858  1
  C  C484  1  0.33194800  0.37349269  0.27463877  1
  O  O485  1  0.28240417  0.36308427  0.35173167  1
  H  H486  1  0.30932357  0.36949865  0.32011651  1
  C  C487  1  0.29724794  0.36830384  0.30413374  1
  C  C488  1  0.26162232  0.36881293  0.26527435  1
  C  C489  1  0.28758319  0.37016244  0.25933833  1
  O  O490  1  0.35170421  0.28685482  0.37489048  1
  C  C491  1  0.43357327  0.25679947  0.26966150  1
  C  C492  1  0.38849181  0.32248974  0.27613864  1
  O  O493  1  0.39084008  0.33440474  0.29575656  1
  O  O494  1  0.45291020  0.26769365  0.30818357  1
  H  H495  1  0.49204748  0.35595602  0.31550880  1
  C  C496  1  0.44396844  0.33845830  0.35371415  1
  C  C497  1  0.45708256  0.35007477  0.33518877  1
  H  H498  1  0.42310926  0.34022222  0.35526350  1
  C  C499  1  0.48282326  0.34685721  0.33152484  1
  C  C500  1  0.48207991  0.31985286  0.36795144  1
  H  H501  1  0.42539909  0.30553427  0.30980957  1
  C  C502  1  0.42253595  0.29409220  0.29322241  1
  C  C503  1  0.43744139  0.27241728  0.29180781  1
  C  C504  1  0.45597301  0.32161151  0.36936717  1
  C  C505  1  0.40486517  0.29908898  0.27542693  1
  C  C506  1  0.49494121  0.33251207  0.34962997  1
  C  C507  1  0.44230536  0.36638947  0.31724530  1
  C  C508  1  0.41399774  0.26245944  0.25319563  1
  C  C509  1  0.39982450  0.28441949  0.25495864  1
  O  O510  1  0.37624985  0.32944228  0.25821519  1
  O  O511  1  0.41983319  0.36810420  0.32215875  1
  O  O512  1  0.45260309  0.37343635  0.29775552  1
  C  C513  1  0.04491481  0.43040506  0.25649151  1
  O  O514  1  0.04243019  0.40731056  0.26106945  1
  O  O515  1  0.11975299  0.44161580  0.28515695  1
  Zn  Zn516  1  0.10334183  0.42507672  0.25429377  1
  O  O517  1  0.06464165  0.44164760  0.25735937  1
  Zn  Zn518  1  0.06918542  0.38010755  0.25392468  1
  O  O519  1  0.10495355  0.38829484  0.25324380  1
  C  C520  1  0.02259013  0.47110275  0.25348439  1
  H  H521  1  0.04036768  0.47960041  0.25242263  1
  C  C522  1  0.00113166  0.48563231  0.25118790  1
  C  C523  1  0.02137558  0.44498647  0.25614746  1
  Zn  Zn524  1  0.12579094  0.37642569  0.28123553  1
  H  H525  1  0.21246056  0.37752879  0.27355628  1
  O  O526  1  0.16594236  0.37713915  0.26200612  1
  O  O527  1  0.22751471  0.44157930  0.35843115  1
  C  C528  1  0.13322352  0.43000871  0.30035853  1
  O  O529  1  0.13368745  0.40702274  0.30357264  1
  H  H530  1  0.13983988  0.47907800  0.29980295  1
  C  C531  1  0.17366551  0.48250214  0.32255975  1
  C  C532  1  0.15531523  0.46992698  0.30889234  1
  C  C533  1  0.15487108  0.44451834  0.31109451  1
  C  C534  1  0.17274247  0.43052914  0.32342108  1
  H  H535  1  0.17123011  0.40997070  0.32309614  1
  C  C536  1  0.19162904  0.44489294  0.33376514  1
  C  C537  1  0.19440226  0.47085048  0.33482704  1
  C  C538  1  0.21043568  0.43033643  0.34830658  1
  H  H539  1  0.20833830  0.47978119  0.34712931  1
  O  O540  1  0.20570448  0.40788126  0.35132686  1
  C  C541  1  0.30562257  0.42778511  0.37213712  1
  C  C542  1  0.33519589  0.48269145  0.33949401  1
  C  C543  1  0.32402240  0.44148503  0.35522876  1
  C  C544  1  0.31863424  0.46607568  0.35264266  1
  C  C545  1  0.34315830  0.43028137  0.34149644  1
  H  H546  1  0.34637666  0.41012484  0.34335807  1
  C  C547  1  0.35737604  0.44520555  0.32649661  1
  C  C548  1  0.35390812  0.47069934  0.32457721  1
  H  H549  1  0.36671933  0.48094914  0.31269741  1
  H  H550  1  0.30143237  0.47381956  0.36233440  1
  O  O551  1  0.34073075  0.37729906  0.25424166  1
  C  C552  1  0.37823477  0.43373535  0.31074978  1
  Zn  Zn553  1  0.38599964  0.37504431  0.29621412  1
  O  O554  1  0.38388758  0.41184225  0.31586138  1
  O  O555  1  0.38618438  0.44549248  0.29324109  1
  Zn  Zn556  1  0.43444189  0.37550526  0.25926172  1
  O  O557  1  0.40065032  0.38574849  0.26375410  1
  Zn  Zn558  1  0.40235740  0.42282254  0.26267365  1
  O  O559  1  0.43548494  0.43976716  0.25227104  1
  C  C560  1  0.24214263  0.01809863  0.43317972  1
  C  C561  1  0.24235955  0.04102038  0.41723557  1
  O  O562  1  0.23649887  0.03905504  0.39458626  1
  O  O563  1  0.24826702  0.06083941  0.42733977  1
  C  C564  1  0.24963654  0.00076938  0.47411235  1
  C  C565  1  0.24854657  0.02073617  0.45781728  1
  Zn  Zn566  1  0.24981536  0.09873945  0.41975023  1
  O  O567  1  0.24732710  0.10421399  0.38422669  1
  O  O568  1  0.21837397  0.11643055  0.43856548  1
  O  O569  1  0.19711129  0.11702209  0.40425370  1
  C  C570  1  0.20061145  0.12443039  0.42571910  1
  H  H571  1  0.25614413  0.03908276  0.46398450  1
  O  O572  1  0.28108586  0.11754782  0.44418807  1
  Zn  Zn573  1  0.07496160  0.24059226  0.38961629  1
  O  O574  1  0.05694573  0.23564902  0.42496454  1
  O  O575  1  0.11080730  0.24237521  0.39040236  1
  O  O576  1  0.12208612  0.20521649  0.42931768  1
  H  H577  1  0.01534041  0.23676706  0.45003418  1
  Zn  Zn578  1  0.12059647  0.24409090  0.42630210  1
  C  C579  1  0.02445812  0.24229601  0.46812504  1
  C  C580  1  0.01066184  0.24743547  0.49060906  1
  C  C581  1  0.06493702  0.24257170  0.44530310  1
  C  C582  1  0.04936045  0.24463957  0.46869740  1
  O  O583  1  0.08738149  0.24690640  0.44859146  1
  O  O584  1  0.21947138  0.16227620  0.37849722  1
  H  H585  1  0.19482762  0.19634195  0.37702587  1
  C  C586  1  0.20927495  0.21044895  0.37751255  1
  C  C587  1  0.20422979  0.23598320  0.37571827  1
  C  C588  1  0.23810781  0.17557255  0.38473258  1
  C  C589  1  0.23380162  0.20293332  0.38269139  1
  O  O590  1  0.13292348  0.18631958  0.39359893  1
  H  H591  1  0.19146303  0.13402649  0.47313938  1
  C  C592  1  0.13511729  0.19005783  0.41660106  1
  C  C593  1  0.18146162  0.14788877  0.46310590  1
  C  C594  1  0.18290576  0.14312990  0.43752039  1
  H  H595  1  0.16658174  0.15274307  0.40094202  1
  C  C596  1  0.16816842  0.15697495  0.42130437  1
  C  C597  1  0.15208340  0.17428068  0.43120821  1
  C  C598  1  0.15327954  0.17988337  0.45685123  1
  C  C599  1  0.16687040  0.16614805  0.47427611  1
  H  H600  1  0.14156536  0.19535877  0.46361913  1
  C  C601  1  0.24642136  0.24382533  0.38372674  1
  H  H602  1  0.29698824  0.23905902  0.37969796  1
  Zn  Zn603  1  0.27513500  0.12733562  0.37787862  1
  O  O604  1  0.25894064  0.16706449  0.38829975  1
  C  C605  1  0.25325546  0.21931061  0.38679153  1
  H  H606  1  0.27175320  0.21345344  0.39207311  1
  H  H607  1  0.29574867  0.13309872  0.48515342  1
  C  C608  1  0.29309192  0.13389163  0.43330418  1
  O  O609  1  0.29622626  0.13569308  0.41045486  1
  C  C610  1  0.30339266  0.15015400  0.47645891  1
  C  C611  1  0.30556417  0.15252184  0.45100068  1
  C  C612  1  0.31935062  0.17080338  0.43909053  1
  H  H613  1  0.32341143  0.17025694  0.41832459  1
  C  C614  1  0.32977075  0.18964931  0.45356861  1
  C  C615  1  0.32723297  0.18911345  0.47954328  1
  C  C616  1  0.31562168  0.16891778  0.49023792  1
  H  H617  1  0.33649311  0.20268066  0.49124037  1
  C  C618  1  0.34587081  0.20899630  0.44121530  1
  O  O619  1  0.35037392  0.20741564  0.41885385  1
  O  O620  1  0.35557423  0.22635694  0.45448433  1
  Zn  Zn621  1  0.37565298  0.23072719  0.39188692  1
  O  O622  1  0.41175774  0.22903378  0.46287387  1
  C  C623  1  0.43445870  0.23361290  0.46090227  1
  C  C624  1  0.44834230  0.23806422  0.48571586  1
  O  O625  1  0.44554139  0.23694587  0.44055328  1
  C  C626  1  0.47355729  0.24016844  0.48475005  1
  H  H627  1  0.48310821  0.24033485  0.46600950  1
  O  O628  1  0.06345370  0.27981051  0.38270343  1
  H  H629  1  0.08424312  0.25415406  0.48908239  1
  C  C630  1  0.06354871  0.25187661  0.48966741  1
  Zn  Zn631  1  0.12682245  0.27198452  0.37612699  1
  H  H632  1  0.21841657  0.27343867  0.37504198  1
  C  C633  1  0.22279940  0.25308477  0.37763567  1
  O  O634  1  0.13896884  0.27446766  0.44119529  1
  O  O635  1  0.14161408  0.29697484  0.40681420  1
  C  C636  1  0.14623835  0.29260001  0.42906755  1
  H  H637  1  0.15088134  0.30099213  0.47952968  1
  H  H638  1  0.17290895  0.32934922  0.40857576  1
  C  C639  1  0.16100713  0.31297294  0.44302336  1
  C  C640  1  0.16182755  0.31398220  0.46861882  1
  C  C641  1  0.18541580  0.35234663  0.46620215  1
  C  C642  1  0.17356080  0.33445696  0.48043857  1
  C  C643  1  0.17267797  0.33094568  0.42841517  1
  C  C644  1  0.18627496  0.34964110  0.43998837  1
  H  H645  1  0.23995652  0.29266792  0.39253554  1
  H  H646  1  0.19428876  0.36678248  0.47662472  1
  O  O647  1  0.20249121  0.36695877  0.40216709  1
  C  C648  1  0.20118365  0.36841599  0.42585068  1
  C  C649  1  0.33582387  0.27036330  0.37687435  1
  O  O650  1  0.30517264  0.37339214  0.42413021  1
  C  C651  1  0.29155291  0.25777833  0.38445642  1
  Zn  Zn652  1  0.28288398  0.37059954  0.39100772  1
  C  C653  1  0.30864328  0.27659732  0.38402045  1
  C  C654  1  0.29911372  0.36896001  0.44616535  1
  C  C655  1  0.26596868  0.26323128  0.38761743  1
  C  C656  1  0.26017481  0.28807954  0.39279892  1
  C  C657  1  0.30150063  0.30056443  0.38639490  1
  H  H658  1  0.31481209  0.31608916  0.38431421  1
  C  C659  1  0.27647300  0.30870613  0.39146743  1
  O  O660  1  0.26847028  0.33021400  0.39556087  1
  C  C661  1  0.34194428  0.31723634  0.48879572  1
  C  C662  1  0.33292054  0.33594681  0.44860608  1
  H  H663  1  0.33773124  0.33788087  0.42885939  1
  C  C664  1  0.31584626  0.35087358  0.46061814  1
  C  C665  1  0.34529663  0.31789499  0.46298097  1
  C  C666  1  0.31068985  0.34897807  0.48596037  1
  H  H667  1  0.29675819  0.36108633  0.49521518  1
  C  C668  1  0.36425195  0.30327106  0.44829492  1
  O  O669  1  0.37007797  0.30964075  0.42622881  1
  H  H670  1  0.35073252  0.30231915  0.49955817  1
  H  H671  1  0.49147354  0.30938350  0.38259875  1
  O  O672  1  0.41972382  0.31042546  0.38860108  1
  C  C673  1  0.44253600  0.30664030  0.38826793  1
  Zn  Zn674  1  0.38390351  0.25331646  0.44460138  1
  O  O675  1  0.37640652  0.28739895  0.46014981  1
  Zn  Zn676  1  0.42861844  0.25470905  0.40583324  1
  O  O677  1  0.45084296  0.28988774  0.40169663  1
  Zn  Zn678  1  0.38557553  0.28838998  0.39549243  1
  O  O679  1  0.39270029  0.25668626  0.41007262  1
  Zn  Zn680  1  0.22721590  0.38320498  0.37633242  1
  C  C681  1  0.24615013  0.45110685  0.44283931  1
  C  C682  1  0.24884970  0.49736878  0.44282232  1
  H  H683  1  0.24170646  0.49862528  0.42401472  1
  O  O684  1  0.21339546  0.38297785  0.43829544  1
  O  O685  1  0.23769255  0.45185443  0.42100453  1
  Zn  Zn686  1  0.25078092  0.39568098  0.43536810  1
  O  O687  1  0.28975339  0.44125164  0.38280592  1
  O  O688  1  0.25460244  0.43248791  0.45217912  1
  Zn  Zn689  1  0.25183741  0.43094273  0.38965560  1
  O  O690  1  0.30767625  0.40577534  0.37684208  1
  O  O691  1  0.25462420  0.39474700  0.39694077  1
  C  C692  1  0.25991666  0.47363463  0.48001282  1
  H  H693  1  0.26221691  0.45564527  0.48892721  1
  O  O694  1  0.27964919  0.37847136  0.45549469  1
  C  C695  1  0.25184250  0.47526546  0.45501125  1
  C  C696  1  0.26362152  0.49621416  0.49211214  1
  O  O697  1  0.21033785  0.06177387  0.61684018  1
  Zn  Zn698  1  0.24335301  0.09990367  0.56629587  1
  Zn  Zn699  1  0.24808582  0.06787096  0.61208936  1
  O  O700  1  0.24584185  0.10493943  0.60446413  1
  H  H701  1  0.24522651  0.04029394  0.50385445  1
  C  C702  1  0.24912654  0.02353586  0.51588535  1
  O  O703  1  0.21436630  0.11969328  0.54420497  1
  O  O704  1  0.18945195  0.09494081  0.61430094  1
  C  C705  1  0.19201662  0.07433796  0.62297829  1
  O  O706  1  0.24145037  0.06561658  0.55034753  1
  C  C707  1  0.24967415  0.04503063  0.55823798  1
  C  C708  1  0.25267382  0.00157129  0.50194959  1
  C  C709  1  0.25198057  0.02292526  0.54217527  1
  O  O710  1  0.25317008  0.04234697  0.58128415  1
  C  C711  1  0.25720131  0.00096719  0.55381704  1
  O  O712  1  0.28496360  0.10895366  0.55864573  1
  O  O713  1  0.30241209  0.12086411  0.59376770  1
  C  C714  1  0.29875892  0.12252642  0.57037790  1
  O  O715  1  0.05494465  0.22280457  0.60955755  1
  Zn  Zn716  1  0.12134500  0.22522378  0.60698200  1
  C  C717  1  0.06668379  0.20764717  0.62264126  1
  O  O718  1  0.08921779  0.20360188  0.62056652  1
  H  H719  1  0.01688256  0.20179632  0.62376537  1
  O  O720  1  0.12957059  0.22099142  0.54503794  1
  Zn  Zn721  1  0.21779116  0.12759508  0.61263998  1
  C  C722  1  0.20393099  0.13736524  0.55416113  1
  O  O723  1  0.20652756  0.14344635  0.57636802  1
  C  C724  1  0.14434518  0.20711420  0.55636986  1
  O  O725  1  0.14892828  0.20948927  0.57969145  1
  C  C726  1  0.18609162  0.15327640  0.51353028  1
  C  C727  1  0.18748757  0.15453330  0.53949997  1
  C  C728  1  0.17334329  0.17155917  0.55304874  1
  H  H729  1  0.17467544  0.17155368  0.57318714  1
  C  C730  1  0.15702835  0.18764912  0.54146452  1
  C  C731  1  0.15372103  0.18634280  0.51524883  1
  O  O732  1  0.23587115  0.16616022  0.62045690  1
  H  H733  1  0.22851168  0.21203385  0.62015548  1
  H  H734  1  0.19610900  0.14011970  0.50224302  1
  C  C735  1  0.24797074  0.21766625  0.62228094  1
  H  H736  1  0.14010290  0.19814566  0.50551340  1
  C  C737  1  0.16870540  0.16916114  0.50235559  1
  H  H738  1  0.29620960  0.13249834  0.52039657  1
  C  C739  1  0.31015049  0.14366925  0.55637823  1
  C  C740  1  0.30674773  0.14587484  0.53071609  1
  C  C741  1  0.32668052  0.15966527  0.56864959  1
  H  H742  1  0.33050195  0.15821234  0.58892692  1
  C  C743  1  0.33791104  0.17924586  0.55613424  1
  C  C744  1  0.33113111  0.18460696  0.53152174  1
  C  C745  1  0.31763731  0.16639815  0.51805194  1
  H  H746  1  0.33812031  0.20160904  0.52342944  1
  C  C747  1  0.35424268  0.19652789  0.56988461  1
  O  O748  1  0.36213604  0.19148562  0.59130752  1
  O  O749  1  0.35955752  0.21651445  0.55928701  1
  C  C750  1  0.26529294  0.19810675  0.62336505  1
  C  C751  1  0.25777677  0.17153348  0.62239820  1
  C  C752  1  0.25540388  0.24232232  0.62239777  1
  O  O753  1  0.39213089  0.24424828  0.61018948  1
  Zn  Zn754  1  0.42803205  0.24596309  0.60844197  1
  C  C755  1  0.43443330  0.23774351  0.50713965  1
  C  C756  1  0.44843419  0.24093783  0.52918151  1
  H  H757  1  0.41430248  0.23438619  0.50763749  1
  C  C758  1  0.43405349  0.23941417  0.55320840  1
  O  O759  1  0.41052939  0.23648057  0.55140539  1
  Zn  Zn760  1  0.38230294  0.24988782  0.57610782  1
  C  C761  1  0.47389469  0.24331314  0.52897638  1
  Zn  Zn762  1  0.38020381  0.21181908  0.62264887  1
  H  H763  1  0.48399414  0.24798307  0.54648139  1
  C  C764  1  0.48792468  0.24260920  0.50682696  1
  O  O765  1  0.44558347  0.24124722  0.57293798  1
  O  O766  1  0.44602137  0.21379450  0.62477899  1
  O  O767  1  0.00034074  0.26545323  0.61459551  1
  C  C768  1  0.02358407  0.25083269  0.51300682  1
  H  H769  1  0.01418878  0.25496670  0.53089781  1
  Zn  Zn770  1  0.11328536  0.25671152  0.55768642  1
  O  O771  1  0.10428942  0.25575316  0.59317829  1
  Zn  Zn772  1  0.06791103  0.25900961  0.59223800  1
  O  O773  1  0.08549860  0.26373126  0.53359132  1
  C  C774  1  0.06276767  0.25835458  0.53554496  1
  C  C775  1  0.04954858  0.25263519  0.51137163  1
  O  O776  1  0.05076789  0.25800401  0.55570253  1
  Zn  Zn777  1  0.11683106  0.28411678  0.61126433  1
  O  O778  1  0.05702269  0.29212231  0.61180718  1
  C  C779  1  0.20914427  0.25420916  0.62452702  1
  O  O780  1  0.13047735  0.29127934  0.54776819  1
  O  O781  1  0.13382787  0.31006716  0.58409402  1
  C  C782  1  0.13853765  0.30904129  0.56175012  1
  C  C783  1  0.15921132  0.32253395  0.52234749  1
  C  C784  1  0.17256116  0.34128653  0.56171405  1
  H  H785  1  0.17017619  0.34228129  0.58231465  1
  C  C786  1  0.15729136  0.32434579  0.54868787  1
  C  C787  1  0.18532402  0.35862372  0.54780538  1
  C  C788  1  0.18649714  0.35751799  0.52182795  1
  H  H789  1  0.14864369  0.30851592  0.51246108  1
  C  C790  1  0.17485088  0.33819989  0.50872945  1
  C  C791  1  0.23812806  0.28625293  0.61950962  1
  C  C792  1  0.22306610  0.32984427  0.62151744  1
  C  C793  1  0.21789387  0.30195977  0.62285033  1
  C  C794  1  0.23424128  0.26115585  0.62169790  1
  H  H795  1  0.19679794  0.37311310  0.51335167  1
  O  O796  1  0.24389820  0.33757955  0.61817757  1
  C  C797  1  0.34056905  0.31647485  0.56798175  1
  C  C798  1  0.32417733  0.33044257  0.58174823  1
  H  H799  1  0.32564855  0.33325580  0.60258079  1
  C  C800  1  0.34157028  0.31623396  0.54249098  1
  C  C801  1  0.32490736  0.33149457  0.52847507  1
  C  C802  1  0.30727404  0.34430209  0.56803957  1
  C  C803  1  0.30692584  0.34537499  0.54230479  1
  C  C804  1  0.35769113  0.29868711  0.58223557  1
  C  C805  1  0.28718820  0.35908473  0.58275199  1
  O  O806  1  0.35877839  0.29666392  0.60466596  1
  H  H807  1  0.35303813  0.30282881  0.53293214  1
  O  O808  1  0.28851448  0.36311129  0.60562407  1
  H  H809  1  0.29376231  0.35777078  0.53397233  1
  H  H810  1  0.25712170  0.29378934  0.61615340  1
  O  O811  1  0.27029248  0.36773395  0.56982443  1
  C  C812  1  0.32538561  0.33305906  0.50089093  1
  O  O813  1  0.37096314  0.28526143  0.56757742  1
  C  C814  1  0.19629348  0.37843872  0.56448375  1
  O  O815  1  0.18952715  0.37882441  0.58666910  1
  O  O816  1  0.21185220  0.39374992  0.55602332  1
  O  O817  1  0.23663010  0.39531075  0.61527653  1
  Zn  Zn818  1  0.24557097  0.39701566  0.57904960  1
  Zn  Zn819  1  0.20217522  0.38538540  0.62395697  1
  Zn  Zn820  1  0.23973805  0.43180694  0.62214251  1
  O  O821  1  0.20352945  0.45053282  0.62159072  1
  H  H822  1  0.25633542  0.49407106  0.59425571  1
  C  C823  1  0.25766834  0.49418607  0.57399617  1
  C  C824  1  0.26618521  0.49535897  0.52094676  1
  C  C825  1  0.26476200  0.47427917  0.55969724  1
  C  C826  1  0.26916557  0.47336539  0.53403768  1
  H  H827  1  0.27499561  0.45501008  0.52511402  1
  O  O828  1  0.26548259  0.42931896  0.56314213  1
  C  C829  1  0.26634082  0.44959835  0.57366567  1
  O  O830  1  0.26526381  0.45105237  0.59701650  1
  O  O831  1  0.10449070  0.11498455  0.74066211  1
  O  O832  1  0.11693822  0.07532676  0.70697127  1
  C  C833  1  0.00505727  0.06826096  0.74306255  1
  H  H834  1  0.00521077  0.08872324  0.74137068  1
  O  O835  1  0.04686977  0.09193584  0.73943655  1
  C  C836  1  0.04976989  0.06965716  0.74156536  1
  Zn  Zn837  1  0.10767588  0.07866824  0.74575322  1
  C  C838  1  0.02649907  0.05404625  0.74394383  1
  C  C839  1  0.00353969  0.01547202  0.74316043  1
  O  O840  1  0.07078135  0.05985599  0.74405443  1
  C  C841  1  0.02613638  0.02837896  0.74323090  1
  H  H842  1  0.04590316  0.02037296  0.74153737  1
  C  C843  1  0.13138156  0.08445787  0.69072089  1
  O  O844  1  0.13469828  0.10736489  0.68917590  1
  H  H845  1  0.13402020  0.03335477  0.69374619  1
  H  H846  1  0.18621057  0.02572086  0.63372896  1
  C  C847  1  0.15921115  0.02531719  0.66346578  1
  C  C848  1  0.14466428  0.04156145  0.67807119  1
  C  C849  1  0.14635090  0.06693788  0.67565007  1
  C  C850  1  0.16078013  0.07863239  0.65674953  1
  H  H851  1  0.16289500  0.09797563  0.65574609  1
  C  C852  1  0.17397736  0.06253590  0.64190737  1
  C  C853  1  0.17412959  0.03748099  0.64561741  1
  O  O854  1  0.24738656  0.11618149  0.66034498  1
  Zn  Zn855  1  0.27503292  0.11499052  0.62589169  1
  O  O856  1  0.28011176  0.05163805  0.62809773  1
  O  O857  1  0.29591521  0.08504467  0.64416486  1
  H  H858  1  0.29950793  0.01197142  0.64591357  1
  C  C859  1  0.29582426  0.06185981  0.64259910  1
  C  C860  1  0.33183430  0.00826291  0.66988665  1
  C  C861  1  0.31385073  0.04750376  0.65758152  1
  C  C862  1  0.33087034  0.06069621  0.67240804  1
  H  H863  1  0.33291965  0.08082558  0.67200651  1
  C  C864  1  0.34678299  0.04653975  0.68746872  1
  C  C865  1  0.31369553  0.02200031  0.65689380  1
  C  C866  1  0.34853627  0.02143838  0.68588743  1
  H  H867  1  0.36098309  0.01274606  0.69822798  1
  C  C868  1  0.36698623  0.05948141  0.70289113  1
  O  O869  1  0.36966825  0.08168867  0.69920151  1
  O  O870  1  0.33765368  0.11713018  0.73323728  1
  O  O871  1  0.37869403  0.04687713  0.71829841  1
  Zn  Zn872  1  0.38104458  0.11316456  0.71956668  1
  O  O873  1  0.44854991  0.12457403  0.72175589  1
  O  O874  1  0.43767000  0.04759680  0.74440075  1
  C  C875  1  0.48071245  0.01860495  0.74653607  1
  H  H876  1  0.46256122  0.00953650  0.74758464  1
  Zn  Zn877  1  0.40096886  0.06228511  0.74953491  1
  C  C878  1  0.48187096  0.04440996  0.74715935  1
  O  O879  1  0.39949684  0.09967048  0.74954363  1
  C  C880  1  0.45798766  0.05820163  0.74936381  1
  O  O881  1  0.05685882  0.13455637  0.70639270  1
  O  O882  1  0.09070244  0.15152616  0.69150324  1
  C  C883  1  0.06766411  0.14684406  0.69094055  1
  H  H884  1  0.01772188  0.14525788  0.68349461  1
  C  C885  1  0.02678036  0.18975697  0.63722320  1
  C  C886  1  0.05261847  0.16058583  0.67166307  1
  C  C887  1  0.06625812  0.17577691  0.65566860  1
  H  H888  1  0.08637029  0.17770967  0.65807153  1
  C  C889  1  0.05212676  0.18984687  0.63900570  1
  C  C890  1  0.02706349  0.15803705  0.67057020  1
  C  C891  1  0.01390389  0.17327303  0.65333838  1
  Zn  Zn892  1  0.12107052  0.13416367  0.71276657  1
  O  O893  1  0.03940553  0.18104626  0.74880315  1
  Zn  Zn894  1  0.06957252  0.12554730  0.74664666  1
  O  O895  1  0.07632012  0.16558328  0.74923775  1
  O  O896  1  0.15620522  0.23851880  0.63017879  1
  H  H897  1  0.20262645  0.23567775  0.62854064  1
  C  C898  1  0.22748523  0.12595289  0.66656286  1
  C  C899  1  0.24346743  0.13503908  0.70888108  1
  O  O900  1  0.20951309  0.12926943  0.65188692  1
  C  C901  1  0.22251220  0.13443673  0.69292173  1
  H  H902  1  0.18410607  0.13805732  0.68966297  1
  C  C903  1  0.19925250  0.14164468  0.70167849  1
  C  C904  1  0.19652820  0.15116518  0.72585191  1
  O  O905  1  0.15449874  0.16020018  0.71825973  1
  C  C906  1  0.24149464  0.14268954  0.73437594  1
  C  C907  1  0.17145246  0.15922117  0.73438410  1
  C  C908  1  0.21740044  0.15255247  0.74123852  1
  C  C909  1  0.29006290  0.20435598  0.62664513  1
  O  O910  1  0.27512101  0.15575430  0.62675942  1
  C  C911  1  0.28085155  0.24742626  0.62541375  1
  H  H912  1  0.30578534  0.19006776  0.62651468  1
  C  C913  1  0.29840907  0.22898726  0.62838622  1
  C  C914  1  0.32718996  0.23230917  0.62907075  1
  O  O915  1  0.33892215  0.21227315  0.62981517  1
  H  H916  1  0.26147974  0.12801842  0.70183777  1
  H  H917  1  0.28997197  0.13402380  0.72468326  1
  C  C918  1  0.28547683  0.13460092  0.74458178  1
  C  C919  1  0.37482393  0.23263491  0.67725499  1
  O  O920  1  0.37462514  0.15280110  0.72571563  1
  H  H921  1  0.37356655  0.18871777  0.69868835  1
  O  O922  1  0.41526872  0.12848082  0.69914900  1
  C  C923  1  0.43750491  0.13302388  0.70313047  1
  C  C924  1  0.37561004  0.24537068  0.72361160  1
  C  C925  1  0.37728607  0.23937788  0.74879455  1
  H  H926  1  0.48604656  0.14341297  0.70416752  1
  O  O927  1  0.41406312  0.18922307  0.63043786  1
  C  C928  1  0.37514323  0.22721107  0.70508572  1
  C  C929  1  0.37649325  0.19595897  0.73811266  1
  C  C930  1  0.37656195  0.16843246  0.74311854  1
  C  C931  1  0.37529989  0.20301536  0.71253871  1
  C  C932  1  0.43575436  0.19554153  0.63483009  1
  O  O933  1  0.37799034  0.21463022  0.66320558  1
  H  H934  1  0.48695452  0.19776172  0.64405252  1
  C  C935  1  0.48957635  0.16942528  0.67354338  1
  C  C936  1  0.47655228  0.18392191  0.65585784  1
  C  C937  1  0.47624562  0.15522088  0.69129661  1
  C  C938  1  0.45107514  0.15109752  0.68673452  1
  H  H939  1  0.41826592  0.15974447  0.66495626  1
  C  C940  1  0.45064053  0.18192828  0.65442264  1
  C  C941  1  0.43803034  0.16442700  0.66854142  1
  O  O942  1  0.09055024  0.30586018  0.63041938  1
  C  C943  1  0.06752539  0.30496208  0.62759956  1
  H  H944  1  0.01665176  0.30630724  0.62535423  1
  H  H945  1  0.01079243  0.36116673  0.68813366  1
  C  C946  1  0.05010653  0.32075717  0.64371493  1
  C  C947  1  0.02450755  0.31847423  0.64066756  1
  C  C948  1  0.06190154  0.33588415  0.66063847  1
  H  H949  1  0.08219326  0.33583328  0.66254658  1
  C  C950  1  0.04628427  0.34984846  0.67653824  1
  C  C951  1  0.02048108  0.34781839  0.67550148  1
  C  C952  1  0.00942870  0.33238166  0.65736960  1
  C  C953  1  0.05885907  0.36790656  0.69401616  1
  O  O954  1  0.08221483  0.36623582  0.69420934  1
  O  O955  1  0.00142464  0.29162413  0.74867979  1
  O  O956  1  0.20425508  0.34352086  0.62528637  1
  C  C957  1  0.19277425  0.29526716  0.62626227  1
  H  H958  1  0.17767492  0.30838712  0.62799815  1
  C  C959  1  0.18909053  0.26982838  0.62683678  1
  C  C960  1  0.16205557  0.26054032  0.63231057  1
  O  O961  1  0.14703467  0.27752996  0.63787358  1
  C  C962  1  0.17590432  0.35554356  0.72903425  1
  C  C963  1  0.21923648  0.33373948  0.70963657  1
  C  C964  1  0.21037971  0.35479659  0.69905595  1
  C  C965  1  0.18912386  0.36692115  0.70940087  1
  C  C966  1  0.15267250  0.36710589  0.73871688  1
  C  C967  1  0.20602862  0.32383277  0.72979184  1
  C  C968  1  0.18414920  0.33392073  0.73982252  1
  H  H969  1  0.23537689  0.32445815  0.70149172  1
  C  C970  1  0.22071283  0.36624588  0.67585254  1
  H  H971  1  0.18290715  0.27861139  0.74067369  1
  C  C972  1  0.21572019  0.30135931  0.74459182  1
  C  C973  1  0.20217152  0.27985188  0.74895510  1
  O  O974  1  0.24197135  0.36214479  0.66860227  1
  H  H975  1  0.28541915  0.26768635  0.62623630  1
  Zn  Zn976  1  0.26044511  0.37399947  0.63446429  1
  O  O977  1  0.33506961  0.25310445  0.62798814  1
  H  H978  1  0.37225725  0.28876375  0.74045656  1
  O  O979  1  0.37140819  0.33185045  0.74351049  1
  O  O980  1  0.37482520  0.25377971  0.66943878  1
  H  H981  1  0.25346611  0.32053909  0.74849780  1
  Zn  Zn982  1  0.37538507  0.26865542  0.63057682  1
  O  O983  1  0.44327069  0.27931736  0.62623502  1
  H  H984  1  0.37703785  0.26359099  0.71809442  1
  O  O985  1  0.40867544  0.29562600  0.63960519  1
  Zn  Zn986  1  0.38234955  0.36939188  0.72680120  1
  C  C987  1  0.48696959  0.32486793  0.67071974  1
  O  O988  1  0.44538062  0.36365234  0.72606518  1
  C  C989  1  0.43120579  0.29322580  0.64019333  1
  H  H990  1  0.48515397  0.34934529  0.70313316  1
  O  O991  1  0.41129941  0.35443122  0.70521959  1
  C  C992  1  0.43459424  0.35394110  0.70807033  1
  C  C993  1  0.47387305  0.30865723  0.65442767  1
  C  C994  1  0.47410760  0.33905363  0.68889830  1
  C  C995  1  0.44807275  0.30996834  0.65503410  1
  C  C996  1  0.43535503  0.32632570  0.67144299  1
  H  H997  1  0.41493353  0.32626779  0.67193303  1
  C  C998  1  0.44860103  0.33976814  0.68861749  1
  H  H999  1  0.48274226  0.29465906  0.64037774  1
  O  O1000  1  0.04607628  0.38033409  0.70899239  1
  Zn  Zn1001  1  0.10784278  0.39289908  0.71048768  1
  O  O1002  1  0.10403041  0.45705025  0.70970438  1
  O  O1003  1  0.11352127  0.42352401  0.68724050  1
  O  O1004  1  0.09444253  0.40049748  0.74440905  1
  C  C1005  1  0.11724834  0.44594957  0.69348053  1
  Zn  Zn1006  1  0.05765060  0.38796790  0.74453593  1
  Zn  Zn1007  1  0.09418511  0.43655936  0.74565772  1
  H  H1008  1  0.13150262  0.49454374  0.69702301  1
  H  H1009  1  0.18274003  0.38428973  0.70092469  1
  O  O1010  1  0.17921633  0.41987521  0.63125744  1
  O  O1011  1  0.14570791  0.38501559  0.72515725  1
  O  O1012  1  0.20781487  0.38242266  0.66488114  1
  C  C1013  1  0.15901956  0.49632069  0.66847943  1
  C  C1014  1  0.13728080  0.45804747  0.67986339  1
  C  C1015  1  0.14159406  0.48362305  0.68291469  1
  H  H1016  1  0.18938206  0.48983549  0.64002720  1
  H  H1017  1  0.14958340  0.42491084  0.65981514  1
  C  C1018  1  0.15236569  0.44507353  0.66335613  1
  C  C1019  1  0.17415327  0.48269058  0.65195022  1
  C  C1020  1  0.18539688  0.44172573  0.63291761  1
  C  C1021  1  0.17119115  0.45780401  0.65046416  1
  H  H1022  1  0.28967913  0.47384447  0.66393756  1
  C  C1023  1  0.30452390  0.46313096  0.67236076  1
  C  C1024  1  0.32628532  0.47426920  0.68048931  1
  C  C1025  1  0.36004277  0.41821771  0.70803669  1
  O  O1026  1  0.28229881  0.40155991  0.65585311  1
  C  C1027  1  0.34385041  0.45873545  0.69207060  1
  C  C1028  1  0.34157844  0.43333884  0.69290390  1
  O  O1029  1  0.26482588  0.43849646  0.65095421  1
  O  O1030  1  0.35780593  0.39524282  0.70711436  1
  C  C1031  1  0.28168589  0.42503949  0.65894313  1
  H  H1032  1  0.32190554  0.40199652  0.67791546  1
  C  C1033  1  0.30338718  0.43750891  0.67037519  1
  H  H1034  1  0.35962874  0.46680516  0.70231770  1
  C  C1035  1  0.32202219  0.42201995  0.67989810  1
  O  O1036  1  0.37587702  0.42906630  0.72024001  1
  O  O1037  1  0.05756864  0.12495629  0.78502546  1
  C  C1038  1  0.18276393  0.00184940  0.80561209  1
  H  H1039  1  0.21698920  0.00675189  0.82610829  1
  H  H1040  1  0.14910408  0.00181010  0.78343159  1
  O  O1041  1  0.12712530  0.03694802  0.75988923  1
  C  C1042  1  0.13973668  0.04927467  0.77484684  1
  O  O1043  1  0.13706780  0.07194577  0.77472823  1
  C  C1044  1  0.16338626  0.01299561  0.79174954  1
  C  C1045  1  0.16169123  0.03817654  0.78980439  1
  C  C1046  1  0.17908384  0.05299789  0.80285203  1
  H  H1047  1  0.17795137  0.07300414  0.80191974  1
  C  C1048  1  0.19850083  0.04131481  0.81543523  1
  C  C1049  1  0.21374234  0.06158087  0.82861955  1
  O  O1050  1  0.20956212  0.08323732  0.82874314  1
  C  C1051  1  0.20175595  0.01581556  0.81664229  1
  O  O1052  1  0.23410562  0.05269630  0.83704747  1
  Zn  Zn1053  1  0.25218558  0.06850762  0.87072080  1
  C  C1054  1  0.34300784  0.01388386  0.82477603  1
  C  C1055  1  0.32637783  0.02612223  0.84120538  1
  C  C1056  1  0.34705834  0.06525917  0.83302438  1
  H  H1057  1  0.34868621  0.08537671  0.83546558  1
  C  C1058  1  0.32785311  0.05137252  0.84379655  1
  C  C1059  1  0.36248292  0.05229997  0.81715600  1
  C  C1060  1  0.36159918  0.02712600  0.81244428  1
  H  H1061  1  0.30966018  0.01710248  0.85000287  1
  C  C1062  1  0.30849332  0.06423953  0.85955364  1
  O  O1063  1  0.31077317  0.08642718  0.86418822  1
  O  O1064  1  0.29050022  0.05235950  0.86838259  1
  Zn  Zn1065  1  0.28814520  0.11988262  0.87406080  1
  O  O1066  1  0.34431156  0.11683809  0.77222865  1
  C  C1067  1  0.33029941  0.12063176  0.75395783  1
  H  H1068  1  0.31502701  0.12444247  0.80113400  1
  H  H1069  1  0.37564481  0.01995837  0.79866028  1
  C  C1070  1  0.38320442  0.06611845  0.80343037  1
  O  O1071  1  0.38376708  0.08843501  0.80649849  1
  O  O1072  1  0.39616678  0.05309564  0.78885195  1
  O  O1073  1  0.46008050  0.07980834  0.75494161  1
  Zn  Zn1074  1  0.43444922  0.11092237  0.75514858  1
  Zn  Zn1075  1  0.38443596  0.12169760  0.77722007  1
  O  O1076  1  0.09218845  0.13509161  0.80501646  1
  C  C1077  1  0.07007713  0.13646916  0.80243255  1
  C  C1078  1  0.06806779  0.16746957  0.83429374  1
  H  H1079  1  0.08851275  0.16449217  0.83512233  1
  C  C1080  1  0.05376269  0.15320671  0.81815941  1
  C  C1081  1  0.02813936  0.15481373  0.81589006  1
  C  C1082  1  0.05465326  0.18370271  0.84895200  1
  C  C1083  1  0.02890312  0.18601362  0.84717294  1
  C  C1084  1  0.09074022  0.20125168  0.78582271  1
  C  C1085  1  0.09801804  0.21846818  0.80458263  1
  C  C1086  1  0.07962678  0.23572218  0.81076056  1
  C  C1087  1  0.05548135  0.23459400  0.80090185  1
  C  C1088  1  0.04837738  0.21636358  0.78436028  1
  C  C1089  1  0.06731811  0.20054409  0.77611378  1
  H  H1090  1  0.10297038  0.18647985  0.78008483  1
  H  H1091  1  0.02977775  0.21544498  0.77593707  1
  H  H1092  1  0.01810962  0.14251727  0.80317368  1
  C  C1093  1  0.01474944  0.17148855  0.83102288  1
  H  H1094  1  0.01933670  0.20021634  0.85871256  1
  C  C1095  1  0.06748331  0.20212151  0.86541882  1
  O  O1096  1  0.09053961  0.20156894  0.86536984  1
  H  H1097  1  0.02423785  0.23559220  0.84341260  1
  C  C1098  1  0.05992227  0.18030264  0.75759144  1
  C  C1099  1  0.12318623  0.21831700  0.81374508  1
  Zn  Zn1100  1  0.12372521  0.22832107  0.87148832  1
  C  C1101  1  0.01778615  0.24782469  0.82902040  1
  O  O1102  1  0.12854313  0.23388104  0.83050735  1
  H  H1103  1  0.23761625  0.14013463  0.78704680  1
  O  O1104  1  0.13880212  0.20187307  0.80738218  1
  H  H1105  1  0.21662153  0.16336193  0.75949246  1
  Zn  Zn1106  1  0.16212380  0.20120250  0.77375837  1
  O  O1107  1  0.20322082  0.22225244  0.78434835  1
  C  C1108  1  0.19693706  0.23950317  0.77110493  1
  O  O1109  1  0.16948919  0.16609720  0.75630549  1
  O  O1110  1  0.17465680  0.23848590  0.76280641  1
  Zn  Zn1111  1  0.23169768  0.13336025  0.87119634  1
  H  H1112  1  0.21187856  0.24087619  0.87112413  1
  O  O1113  1  0.29046193  0.12860454  0.83673852  1
  O  O1114  1  0.25160187  0.13957062  0.83364444  1
  C  C1115  1  0.29991728  0.12895249  0.78770633  1
  C  C1116  1  0.27174695  0.13528092  0.82381760  1
  C  C1117  1  0.30374493  0.12883991  0.76196638  1
  C  C1118  1  0.27608691  0.13464956  0.79626004  1
  C  C1119  1  0.25716012  0.13814775  0.77948422  1
  C  C1120  1  0.26158814  0.13935178  0.75357194  1
  H  H1121  1  0.37689321  0.20869983  0.77662972  1
  C  C1122  1  0.37724022  0.21365816  0.75699128  1
  H  H1123  1  0.38384184  0.23585360  0.79915497  1
  O  O1124  1  0.37971114  0.16176850  0.76484458  1
  O  O1125  1  0.44516592  0.12740767  0.78797874  1
  O  O1126  1  0.41079747  0.14040031  0.80582125  1
  C  C1127  1  0.43401303  0.13990262  0.80450543  1
  C  C1128  1  0.48696737  0.17254873  0.83815624  1
  C  C1129  1  0.43603718  0.17065182  0.83930578  1
  H  H1130  1  0.41566273  0.17070662  0.83915321  1
  C  C1131  1  0.44855558  0.15628571  0.82184463  1
  C  C1132  1  0.47497997  0.15733995  0.82131124  1
  C  C1133  1  0.44786494  0.18617822  0.85644078  1
  C  C1134  1  0.47312472  0.18665717  0.85559975  1
  H  H1135  1  0.48529752  0.14597673  0.80823260  1
  O  O1136  1  0.38894165  0.24579494  0.84381967  1
  H  H1137  1  0.48314074  0.19669625  0.86977303  1
  C  C1138  1  0.45743688  0.23091216  0.81708942  1
  O  O1139  1  0.43940562  0.22575543  0.81096952  1
  O  O1140  1  0.40878095  0.19732772  0.87041830  1
  C  C1141  1  0.43178772  0.20140714  0.87361846  1
  H  H1142  1  0.08343800  0.25141969  0.82407141  1
  C  C1143  1  0.03213932  0.25056767  0.80703552  1
  H  H1144  1  0.03297788  0.26532481  0.76975283  1
  C  C1145  1  0.02141173  0.26429800  0.78742092  1
  C  C1146  1  0.02222211  0.31040983  0.84211891  1
  C  C1147  1  0.04794717  0.30881254  0.84161427  1
  C  C1148  1  0.06110543  0.32270296  0.82360884  1
  H  H1149  1  0.08144206  0.32320172  0.82288807  1
  C  C1150  1  0.04747908  0.33521699  0.80505813  1
  C  C1151  1  0.02177497  0.33725844  0.80560425  1
  C  C1152  1  0.00863428  0.32625850  0.82564277  1
  C  C1153  1  0.06294175  0.34848378  0.78590602  1
  O  O1154  1  0.08530412  0.34986637  0.78840314  1
  H  H1155  1  0.01150812  0.34667885  0.78943467  1
  O  O1156  1  0.08628630  0.29156266  0.85428643  1
  C  C1157  1  0.06382085  0.29144236  0.85715733  1
  H  H1158  1  0.01212746  0.29892231  0.85602657  1
  O  O1159  1  0.05082376  0.35616668  0.76738420  1
  O  O1160  1  0.05329549  0.27750880  0.87277644  1
  H  H1161  1  0.24512625  0.25024886  0.78608338  1
  O  O1162  1  0.15969865  0.25060653  0.87124790  1
  C  C1163  1  0.23710776  0.26468960  0.77439108  1
  O  O1164  1  0.15287885  0.28954608  0.86699436  1
  C  C1165  1  0.21361854  0.26164775  0.76392663  1
  C  C1166  1  0.16731705  0.27171788  0.86906249  1
  H  H1167  1  0.18713120  0.31677610  0.86998992  1
  C  C1168  1  0.20118887  0.30238189  0.87268898  1
  O  O1169  1  0.21420137  0.35055814  0.87402033  1
  C  C1170  1  0.19567853  0.27798066  0.87248397  1
  C  C1171  1  0.24073470  0.30408298  0.75341902  1
  O  O1172  1  0.14036851  0.35947090  0.75604752  1
  H  H1173  1  0.17227430  0.32556633  0.75374417  1
  C  C1174  1  0.24996795  0.28581598  0.76749460  1
  O  O1175  1  0.28907792  0.28045509  0.78979271  1
  O  O1176  1  0.35738174  0.34345217  0.77831281  1
  C  C1177  1  0.36765104  0.32706812  0.76534133  1
  C  C1178  1  0.27783846  0.29422108  0.77613135  1
  O  O1179  1  0.28484004  0.31531630  0.77049902  1
  C  C1180  1  0.37229923  0.30269800  0.77711550  1
  H  H1181  1  0.37404540  0.31499410  0.81510596  1
  C  C1182  1  0.37452069  0.28422245  0.75921763  1
  C  C1183  1  0.37512632  0.29820306  0.80249312  1
  O  O1184  1  0.48622233  0.25822472  0.86904684  1
  C  C1185  1  0.37601230  0.25951643  0.76776574  1
  C  C1186  1  0.37958956  0.27456617  0.81022613  1
  C  C1187  1  0.37928767  0.25447498  0.79398398  1
  O  O1188  1  0.38911628  0.28576586  0.85136052  1
  C  C1189  1  0.38553021  0.26726770  0.83731702  1
  O  O1190  1  0.44826873  0.26739061  0.85992831  1
  C  C1191  1  0.47170697  0.26824217  0.85472286  1
  H  H1192  1  0.44262386  0.29486907  0.82272020  1
  O  O1193  1  0.43287647  0.32380288  0.78383566  1
  C  C1194  1  0.45500900  0.32638567  0.78230324  1
  O  O1195  1  0.46468716  0.34238020  0.76854284  1
  C  C1196  1  0.48069274  0.28197339  0.83127417  1
  C  C1197  1  0.46208345  0.29391376  0.81729474  1
  C  C1198  1  0.47207318  0.30983757  0.79902029  1
  C  C1199  1  0.43535863  0.35461292  0.83868710  1
  C  C1200  1  0.42216381  0.34311026  0.85684775  1
  H  H1201  1  0.40193798  0.34750306  0.86020652  1
  C  C1202  1  0.46063064  0.35408928  0.83566250  1
  C  C1203  1  0.47429515  0.33928141  0.85226548  1
  H  H1204  1  0.47120023  0.36553677  0.82226076  1
  C  C1205  1  0.46081168  0.32617016  0.87120129  1
  C  C1206  1  0.43484094  0.32747206  0.87337776  1
  C  C1207  1  0.41934185  0.37192725  0.82136541  1
  C  C1208  1  0.49742942  0.31068853  0.79329164  1
  O  O1209  1  0.39643783  0.37170461  0.82388134  1
  Zn  Zn1210  1  0.43270209  0.37068959  0.76384334  1
  Zn  Zn1211  1  0.10829779  0.38079399  0.77095533  1
  O  O1212  1  0.11987000  0.44934043  0.77005609  1
  O  O1213  1  0.06157563  0.45157858  0.76300003  1
  O  O1214  1  0.04104702  0.41687120  0.76510280  1
  C  C1215  1  0.04121973  0.43975529  0.76374326  1
  H  H1216  1  0.03789537  0.48719052  0.75305961  1
  C  C1217  1  0.01925256  0.47881170  0.75483655  1
  C  C1218  1  0.01734393  0.45383799  0.75965756  1
  O  O1219  1  0.12495112  0.41364151  0.78865330  1
  C  C1220  1  0.13008749  0.43621620  0.78615726  1
  H  H1221  1  0.14161911  0.48662499  0.78943276  1
  C  C1222  1  0.14910237  0.44846628  0.80290718  1
  C  C1223  1  0.17120819  0.48566338  0.81510088  1
  C  C1224  1  0.15312864  0.47419590  0.80094181  1
  C  C1225  1  0.18248058  0.44634432  0.83259736  1
  C  C1226  1  0.16375424  0.43474022  0.81873730  1
  H  H1227  1  0.16196793  0.41480565  0.81788034  1
  C  C1228  1  0.18637077  0.47168285  0.83209818  1
  O  O1229  1  0.19363193  0.40840776  0.85317409  1
  C  C1230  1  0.19964446  0.43025414  0.84715218  1
  H  H1231  1  0.19931132  0.47977251  0.84486553  1
  O  O1232  1  0.21777403  0.44052054  0.85658413  1
  H  H1233  1  0.30234201  0.48175248  0.86106794  1
  O  O1234  1  0.29526520  0.40775865  0.87041665  1
  C  C1235  1  0.32898529  0.48161344  0.83230413  1
  C  C1236  1  0.30985429  0.44422608  0.85011580  1
  C  C1237  1  0.31278391  0.46952782  0.84853472  1
  H  H1238  1  0.31804257  0.41006892  0.83159732  1
  C  C1239  1  0.32225669  0.42934071  0.83279894  1
  C  C1240  1  0.33897555  0.46674618  0.81284441  1
  C  C1241  1  0.33579219  0.44168507  0.81365261  1
  H  H1242  1  0.34726985  0.47496739  0.79695204  1
  C  C1243  1  0.34757720  0.42594911  0.79432578  1
  O  O1244  1  0.34749699  0.40274745  0.79576164  1
  O  O1245  1  0.35805132  0.43623513  0.77584631  1
  C  C1246  1  0.29425923  0.43071664  0.86852466  1
  Zn  Zn1247  1  0.37540772  0.37574716  0.78903705  1
  O  O1248  1  0.43098047  0.38445285  0.80628119  1
  O  O1249  1  0.39445805  0.38438249  0.75833416  1
  O  O1250  1  0.42608851  0.44128546  0.76480598  1
  Zn  Zn1251  1  0.39182027  0.42191621  0.75902397  1
  C  C1252  1  0.47041466  0.44495160  0.75867482  1
  O  O1253  1  0.44759087  0.40871437  0.75346840  1
  C  C1254  1  0.44568223  0.43079918  0.75971455  1
  C  C1255  1  0.46911167  0.46988609  0.76258996  1
  C  C1256  1  0.49159294  0.48369327  0.76142144  1
  H  H1257  1  0.45094329  0.47746921  0.76658464  1
  H  H1258  1  0.49184812  0.41149944  0.75463288  1
  C  C1259  1  0.49253601  0.43171928  0.75437712  1
  O  O1260  1  0.23527390  0.04293676  0.89984526  1
  C  C1261  1  0.24676381  0.01878013  0.93658030  1
  C  C1262  1  0.24233229  0.04214142  0.92167354  1
  O  O1263  1  0.21155230  0.11099442  0.92976835  1
  O  O1264  1  0.24406092  0.06168887  0.93476937  1
  Zn  Zn1265  1  0.24892949  0.09859432  0.91922944  1
  C  C1266  1  0.25128122  0.01791478  0.96197994  1
  H  H1267  1  0.25089174  0.03536263  0.97256113  1
  O  O1268  1  0.25484660  0.10560212  0.88356523  1
  O  O1269  1  0.27758622  0.11959896  0.93908801  1
  O  O1270  1  0.30436392  0.11982923  0.90964129  1
  O  O1271  1  0.05466078  0.21877851  0.87643773  1
  O  O1272  1  0.09076574  0.23441090  0.95166310  1
  C  C1273  1  0.06768487  0.23429383  0.95104421  1
  H  H1274  1  0.08492213  0.22820959  0.99974048  1
  O  O1275  1  0.05508981  0.23476514  0.93108903  1
  C  C1276  1  0.05362601  0.23693238  0.97380007  1
  C  C1277  1  0.06555760  0.23639252  0.99700284  1
  C  C1278  1  0.02917923  0.24228905  0.97075387  1
  H  H1279  1  0.02029515  0.24178957  0.95175145  1
  C  C1280  1  0.01500497  0.24987915  0.99201525  1
  Zn  Zn1281  1  0.07029312  0.24690815  0.89551453  1
  H  H1282  1  0.23034917  0.21772923  0.88007087  1
  O  O1283  1  0.24195078  0.17112787  0.87972080  1
  C  C1284  1  0.19910048  0.12791037  0.91905162  1
  O  O1285  1  0.19901373  0.12924792  0.89606904  1
  H  H1286  1  0.19797895  0.13237255  0.96948149  1
  O  O1287  1  0.14350504  0.22245072  0.93480143  1
  C  C1288  1  0.18589906  0.14752935  0.93400545  1
  O  O1289  1  0.14807978  0.20209225  0.89938761  1
  C  C1290  1  0.18816166  0.14665839  0.96008527  1
  C  C1291  1  0.14925374  0.20352103  0.92198510  1
  H  H1292  1  0.15479056  0.20022574  0.97228944  1
  C  C1293  1  0.16381392  0.18416378  0.96213676  1
  C  C1294  1  0.16179024  0.18286561  0.93637963  1
  C  C1295  1  0.17092991  0.16403295  0.92122821  1
  H  H1296  1  0.16735780  0.16463237  0.90027193  1
  C  C1297  1  0.17667341  0.16511708  0.97512603  1
  O  O1298  1  0.34246081  0.22279791  0.88009871  1
  H  H1299  1  0.30897540  0.19562421  0.88427516  1
  C  C1300  1  0.30153019  0.23490187  0.88344426  1
  C  C1301  1  0.29502647  0.21014534  0.88204578  1
  C  C1302  1  0.32877395  0.24124650  0.88223657  1
  O  O1303  1  0.28110381  0.16218846  0.87969164  1
  C  C1304  1  0.25864881  0.24728732  0.88025916  1
  C  C1305  1  0.25082223  0.22229308  0.88090799  1
  C  C1306  1  0.26430168  0.17789284  0.88026024  1
  C  C1307  1  0.26952386  0.20541541  0.88115306  1
  C  C1308  1  0.29733365  0.12760685  0.93070647  1
  H  H1309  1  0.29099702  0.14117784  0.97585705  1
  C  C1310  1  0.31325997  0.14760663  0.94285289  1
  C  C1311  1  0.33173769  0.16037304  0.93075451  1
  H  H1312  1  0.33957379  0.15656454  0.91295493  1
  C  C1313  1  0.34207287  0.18052185  0.94491763  1
  C  C1314  1  0.30627556  0.15316150  0.96749443  1
  C  C1315  1  0.33681581  0.18468916  0.96976596  1
  C  C1316  1  0.32001274  0.16916074  0.98278535  1
  H  H1317  1  0.34782175  0.19920124  0.98020064  1
  C  C1318  1  0.35941586  0.19840122  0.93398241  1
  O  O1319  1  0.36995113  0.19495965  0.91372496  1
  O  O1320  1  0.36404544  0.21789102  0.94690378  1
  Zn  Zn1321  1  0.38166902  0.22260857  0.88373901  1
  O  O1322  1  0.43967793  0.21723978  0.88820607  1
  C  C1323  1  0.43727216  0.24281799  0.94932447  1
  O  O1324  1  0.41554226  0.23487866  0.94882795  1
  O  O1325  1  0.45045942  0.24813578  0.93063599  1
  C  C1326  1  0.44881160  0.24632178  0.97487712  1
  C  C1327  1  0.43350984  0.24125474  0.99515014  1
  H  H1328  1  0.41333593  0.23628270  0.99274038  1
  Zn  Zn1329  1  0.11519174  0.28687905  0.88231106  1
  Zn  Zn1330  1  0.11713579  0.25146957  0.92726585  1
  O  O1331  1  0.10664109  0.25195513  0.89305544  1
  O  O1332  1  0.11575396  0.28817471  0.94531662  1
  O  O1333  1  0.11560735  0.31393693  0.91411998  1
  C  C1334  1  0.12207115  0.30778081  0.93559454  1
  C  C1335  1  0.23241962  0.33702226  0.87678041  1
  C  C1336  1  0.22638068  0.30973848  0.87699659  1
  C  C1337  1  0.21416971  0.26041042  0.87656621  1
  C  C1338  1  0.23933179  0.26690739  0.87950541  1
  C  C1339  1  0.24458732  0.29287499  0.88075871  1
  H  H1340  1  0.17751527  0.37425951  0.98566994  1
  H  H1341  1  0.12957991  0.30871127  0.98776176  1
  C  C1342  1  0.16665543  0.35955306  0.97601906  1
  C  C1343  1  0.13780938  0.32537947  0.95112399  1
  C  C1344  1  0.14020073  0.32295799  0.97709958  1
  H  H1345  1  0.15016598  0.34294674  0.91655496  1
  C  C1346  1  0.15113518  0.34228731  0.93681453  1
  C  C1347  1  0.16582942  0.35918509  0.94970871  1
  C  C1348  1  0.15362623  0.34157162  0.99020774  1
  O  O1349  1  0.27077401  0.37443720  0.95586270  1
  O  O1350  1  0.25403947  0.34392070  0.87896531  1
  H  H1351  1  0.28889364  0.27363306  0.88230045  1
  C  C1352  1  0.28350957  0.25323646  0.88221729  1
  H  H1353  1  0.26386875  0.30082708  0.88246528  1
  O  O1354  1  0.33579643  0.26276500  0.88393202  1
  O  O1355  1  0.36174942  0.27975324  0.95593796  1
  O  O1356  1  0.28916718  0.36428284  0.91994802  1
  C  C1357  1  0.28808878  0.36535861  0.94345499  1
  H  H1358  1  0.32027404  0.32882695  0.92533055  1
  C  C1359  1  0.32063242  0.33300823  0.94594482  1
  C  C1360  1  0.35017551  0.29606358  0.94494970  1
  C  C1361  1  0.33789334  0.31748207  0.98372672  1
  C  C1362  1  0.33641473  0.31666273  0.95787031  1
  C  C1363  1  0.30646483  0.35196300  0.98403136  1
  O  O1364  1  0.34649838  0.29618806  0.92215863  1
  C  C1365  1  0.30643649  0.35084890  0.95864364  1
  H  H1366  1  0.35104934  0.30466751  0.99253328  1
  H  H1367  1  0.29376103  0.36418393  0.99264604  1
  C  C1368  1  0.32096065  0.33361724  0.99675106  1
  Zn  Zn1369  1  0.37264841  0.28257947  0.88843191  1
  H  H1370  1  0.48237829  0.25627172  0.95803167  1
  C  C1371  1  0.47338782  0.25243933  0.97623890  1
  Zn  Zn1372  1  0.43129577  0.25685669  0.89489088  1
  Zn  Zn1373  1  0.38247439  0.25052529  0.93522074  1
  H  H1374  1  0.47168872  0.31575649  0.88555097  1
  O  O1375  1  0.39492386  0.25315147  0.89999473  1
  O  O1376  1  0.39815211  0.31446626  0.89535817  1
  C  C1377  1  0.42093861  0.31198554  0.89266678  1
  O  O1378  1  0.43443269  0.29633168  0.90316553  1
  Zn  Zn1379  1  0.23882938  0.39046335  0.93730511  1
  Zn  Zn1380  1  0.20584600  0.38847597  0.88853774  1
  O  O1381  1  0.24515773  0.42864778  0.95210156  1
  C  C1382  1  0.24655205  0.47271681  0.95316371  1
  O  O1383  1  0.24027516  0.39682658  0.89964928  1
  O  O1384  1  0.19891067  0.38787898  0.94813761  1
  O  O1385  1  0.22816601  0.44893540  0.92072982  1
  C  C1386  1  0.24799421  0.49480897  0.93942147  1
  C  C1387  1  0.18240019  0.37648355  0.93702530  1
  H  H1388  1  0.24288241  0.49621820  0.91963991  1
  C  C1389  1  0.23964537  0.44796529  0.94105365  1
  O  O1390  1  0.17929287  0.37804334  0.91322893  1
  Zn  Zn1391  1  0.24230116  0.43194601  0.88920351  1
  C  C1392  1  0.25300869  0.47228250  0.97813623  1
  H  H1393  1  0.25236933  0.45395842  0.98744573  1
  C  C1394  1  0.25865443  0.49401089  0.99150657  1
  Zn  Zn1395  1  0.26914045  0.37887480  0.89050455  1
  O  O1396  1  0.27880184  0.44390053  0.88035187  1
  O  O1397  1  0.23392118  0.61932503  0.05876960  1
  O  O1398  1  0.21383077  0.55515444  0.12384681  1
  H  H1399  1  0.26001859  0.53177456  0.02314196  1
  C  C1400  1  0.26279170  0.51408890  0.03272231  1
  O  O1401  1  0.26202080  0.55670317  0.06269627  1
  C  C1402  1  0.26929202  0.53740066  0.07309956  1
  Zn  Zn1403  1  0.26152471  0.59489021  0.07626567  1
  O  O1404  1  0.27466790  0.53638790  0.09672422  1
  C  C1405  1  0.26667388  0.51386457  0.05861830  1
  O  O1406  1  0.25701153  0.59265351  0.11264199  1
  O  O1407  1  0.30106749  0.60444991  0.06644611  1
  O  O1408  1  0.31881895  0.61728152  0.10110935  1
  C  C1409  1  0.31255797  0.62065758  0.07847482  1
  H  H1410  1  0.31320986  0.62472438  0.03028720  1
  Zn  Zn1411  1  0.25315499  0.55824499  0.12132665  1
  O  O1412  1  0.06112932  0.74016080  0.06392440  1
  C  C1413  1  0.07257688  0.73979596  0.04327813  1
  O  O1414  1  0.09625158  0.73971144  0.04064775  1
  O  O1415  1  0.11823729  0.74922967  0.09879291  1
  C  C1416  1  0.05673689  0.73984308  0.01983225  1
  H  H1417  1  0.02339826  0.74530305  0.04113047  1
  C  C1418  1  0.03138149  0.74210440  0.02270394  1
  C  C1419  1  0.01743971  0.74282123  0.00016300  1
  Zn  Zn1420  1  0.08198244  0.74883322  0.09767473  1
  Zn  Zn1421  1  0.12937076  0.74793839  0.06437197  1
  Zn  Zn1422  1  0.12834223  0.71640175  0.11425041  1
  H  H1423  1  0.21662593  0.63420376  0.02090552  1
  C  C1424  1  0.22082250  0.63499236  0.07004969  1
  O  O1425  1  0.21900756  0.63617159  0.09355874  1
  O  O1426  1  0.13956161  0.71096652  0.05530557  1
  H  H1427  1  0.15440716  0.68599169  0.01754043  1
  O  O1428  1  0.15182970  0.69512314  0.09106487  1
  C  C1429  1  0.15245185  0.69625730  0.06757041  1
  C  C1430  1  0.20342377  0.65065337  0.05502828  1
  C  C1431  1  0.18720539  0.66626679  0.06890633  1
  H  H1432  1  0.18944814  0.66819801  0.08879012  1
  C  C1433  1  0.20352854  0.64766243  0.02926822  1
  C  C1434  1  0.16950267  0.67819390  0.05477792  1
  C  C1435  1  0.16789621  0.67520102  0.02863979  1
  C  C1436  1  0.18483838  0.66034890  0.01599459  1
  C  C1437  1  0.31956563  0.64259850  0.03927379  1
  C  C1438  1  0.32189103  0.64297614  0.06510551  1
  H  H1439  1  0.33441900  0.66142627  0.09914155  1
  C  C1440  1  0.33214561  0.66243695  0.07889025  1
  C  C1441  1  0.33915240  0.68333317  0.06616494  1
  C  C1442  1  0.33623093  0.68442156  0.04025810  1
  C  C1443  1  0.32681855  0.66415946  0.02644607  1
  H  H1444  1  0.34011119  0.70103652  0.02969943  1
  C  C1445  1  0.34993883  0.70554959  0.07980544  1
  O  O1446  1  0.35749800  0.70294406  0.10136895  1
  O  O1447  1  0.35335886  0.72436679  0.06791214  1
  Zn  Zn1448  1  0.38579974  0.72202543  0.12430384  1
  O  O1449  1  0.41245545  0.72864772  0.04720789  1
  C  C1450  1  0.43586145  0.73135503  0.04857961  1
  C  C1451  1  0.45138977  0.73169862  0.02608962  1
  C  C1452  1  0.47740170  0.73517185  0.02749007  1
  O  O1453  1  0.44693707  0.73515784  0.06890029  1
  H  H1454  1  0.48699183  0.73481431  0.04527174  1
  Zn  Zn1455  1  0.43449857  0.74944883  0.10491629  1
  C  C1456  1  0.43856258  0.73080410  0.00361093  1
  H  H1457  1  0.41788848  0.72789065  0.00313966  1
  C  C1458  1  0.48962873  0.73948759  0.00440227  1
  Zn  Zn1459  1  0.38336195  0.74884210  0.06944991  1
  O  O1460  1  0.06649987  0.78330720  0.11585020  1
  Zn  Zn1461  1  0.13022501  0.77924191  0.11631009  1
  O  O1462  1  0.14206067  0.78240014  0.05018128  1
  O  O1463  1  0.15672868  0.79769022  0.08470643  1
  C  C1464  1  0.15403529  0.79864863  0.06177349  1
  C  C1465  1  0.16964154  0.81442436  0.04402813  1
  C  C1466  1  0.18506288  0.83117690  0.05624943  1
  H  H1467  1  0.18495553  0.83383488  0.07684429  1
  C  C1468  1  0.16781124  0.81353518  0.01872880  1
  C  C1469  1  0.20233645  0.84311670  0.01611316  1
  C  C1470  1  0.20192339  0.84489181  0.04187540  1
  H  H1471  1  0.15453927  0.79967178  0.01109628  1
  C  C1472  1  0.21958104  0.85949253  0.05872636  1
  H  H1473  1  0.21670945  0.85357987  0.00545669  1
  C  C1474  1  0.18344754  0.82877391  0.00434404  1
  O  O1475  1  0.21639003  0.86080387  0.08098311  1
  O  O1476  1  0.23721984  0.87061952  0.04873992  1
  C  C1477  1  0.32716563  0.85915951  0.03239575  1
  C  C1478  1  0.32887627  0.85705027  0.05804913  1
  C  C1479  1  0.33991540  0.83859771  0.07182381  1
  H  H1480  1  0.33815033  0.83699255  0.09242024  1
  C  C1481  1  0.35374870  0.82165762  0.05733689  1
  C  C1482  1  0.35274459  0.82238350  0.03152745  1
  C  C1483  1  0.34048484  0.84130499  0.01782646  1
  H  H1484  1  0.36492081  0.80804725  0.02359158  1
  O  O1485  1  0.36930260  0.80461893  0.09432842  1
  C  C1486  1  0.37042191  0.80402026  0.07101893  1
  O  O1487  1  0.38061382  0.78641252  0.05956800  1
  O  O1488  1  0.39689066  0.75003815  0.10422060  1
  Zn  Zn1489  1  0.38411740  0.77990844  0.12152483  1
  O  O1490  1  0.44793888  0.78056115  0.12459625  1
  Zn  Zn1491  1  0.22443493  0.88222900  0.11623098  1
  Zn  Zn1492  1  0.24584451  0.93516181  0.11233324  1
  O  O1493  1  0.20758092  0.94270221  0.11751895  1
  O  O1494  1  0.23112393  0.99439185  0.12252114  1
  H  H1495  1  0.31942236  0.87521124  0.02375378  1
  C  C1496  1  0.31633334  0.87645499  0.07405261  1
  O  O1497  1  0.31701372  0.87689201  0.09697185  1
  H  H1498  1  0.26468894  0.95703810  0.01117369  1
  C  C1499  1  0.25870427  0.97530366  0.01896948  1
  C  C1500  1  0.25479607  0.99650365  0.00343895  1
  O  O1501  1  0.25363626  0.90086353  0.10242862  1
  O  O1502  1  0.26795691  0.93241974  0.04567638  1
  Zn  Zn1503  1  0.26261201  0.89821327  0.06551096  1
  C  C1504  1  0.25904508  0.99855755  0.05693061  1
  C  C1505  1  0.26051110  0.97641946  0.04488903  1
  C  C1506  1  0.26467671  0.95241067  0.05774200  1
  O  O1507  1  0.26614267  0.95229406  0.08097908  1
  H  H1508  1  0.26118313  0.99912035  0.07695626  1
  O  O1509  1  0.30305485  0.89163519  0.06172804  1
  Zn  Zn1510  1  0.28296826  0.88584302  0.11846397  1
  C  C1511  1  0.00479921  0.51287033  0.24928339  1
  O  O1512  1  0.11726208  0.55987415  0.21231893  1
  Zn  Zn1513  1  0.10736040  0.57263038  0.24813556  1
  O  O1514  1  0.10522973  0.60916428  0.24975061  1
  Zn  Zn1515  1  0.07143707  0.61956064  0.24786224  1
  Zn  Zn1516  1  0.23056811  0.61538568  0.12615904  1
  H  H1517  1  0.13271715  0.52100967  0.19571037  1
  C  C1518  1  0.13310881  0.57129503  0.19885717  1
  O  O1519  1  0.13675000  0.59410173  0.20018328  1
  O  O1520  1  0.20149137  0.59018754  0.13854050  1
  H  H1521  1  0.19547080  0.51635046  0.14532433  1
  C  C1522  1  0.16337120  0.51544260  0.16882946  1
  C  C1523  1  0.19938965  0.56747475  0.13769462  1
  C  C1524  1  0.14609997  0.52939876  0.18243591  1
  C  C1525  1  0.14848109  0.55467871  0.18273379  1
  C  C1526  1  0.16382324  0.56790541  0.16628483  1
  H  H1527  1  0.16245873  0.58842688  0.16526519  1
  C  C1528  1  0.18086973  0.55350365  0.15334632  1
  C  C1529  1  0.18128586  0.52766327  0.15431707  1
  H  H1530  1  0.23654845  0.62091213  0.21061914  1
  O  O1531  1  0.16426293  0.62430433  0.24433689  1
  Zn  Zn1532  1  0.28946747  0.60232669  0.12632221  1
  H  H1533  1  0.29387531  0.50170654  0.16782296  1
  O  O1534  1  0.27588421  0.54078033  0.15032250  1
  O  O1535  1  0.30129159  0.57233961  0.15239264  1
  C  C1536  1  0.29668463  0.54943698  0.15482902  1
  C  C1537  1  0.31204400  0.50965870  0.17355017  1
  C  C1538  1  0.33715609  0.54674149  0.17750110  1
  C  C1539  1  0.31616504  0.53459939  0.16817267  1
  C  C1540  1  0.35129896  0.50822215  0.19769536  1
  H  H1541  1  0.33902239  0.56614257  0.17343305  1
  C  C1542  1  0.35471032  0.53392580  0.19144606  1
  C  C1543  1  0.29035634  0.62240224  0.24787322  1
  O  O1544  1  0.35116061  0.61624076  0.21425373  1
  C  C1545  1  0.37491420  0.55005698  0.20141471  1
  C  C1546  1  0.33601434  0.61950762  0.23202634  1
  H  H1547  1  0.30992470  0.60540077  0.18684744  1
  C  C1548  1  0.29847520  0.61512175  0.20229829  1
  C  C1549  1  0.30923719  0.62144418  0.22728476  1
  O  O1550  1  0.37806826  0.57131422  0.19256127  1
  O  O1551  1  0.38981871  0.54079879  0.21708645  1
  Zn  Zn1552  1  0.38813558  0.60546578  0.21187113  1
  O  O1553  1  0.45090553  0.62275569  0.21769603  1
  O  O1554  1  0.39969340  0.59541867  0.24682247  1
  Zn  Zn1555  1  0.43454551  0.60454219  0.24761975  1
  O  O1556  1  0.05206814  0.62731249  0.21446621  1
  O  O1557  1  0.06589515  0.72247747  0.12507411  1
  O  O1558  1  0.09667345  0.69751942  0.13168716  1
  C  C1559  1  0.07530112  0.70438068  0.13594681  1
  O  O1560  1  0.08848312  0.63042880  0.19634103  1
  C  C1561  1  0.06678444  0.63690660  0.19771961  1
  H  H1562  1  0.02468744  0.70834349  0.14467783  1
  H  H1563  1  0.01875741  0.65074112  0.19866221  1
  C  C1564  1  0.01762729  0.67870513  0.17027236  1
  C  C1565  1  0.02972399  0.66143948  0.18575024  1
  C  C1566  1  0.05492529  0.65743941  0.18182244  1
  C  C1567  1  0.05918359  0.68863409  0.15287493  1
  C  C1568  1  0.03392003  0.69332964  0.15499203  1
  C  C1569  1  0.07143723  0.67057563  0.16702488  1
  H  H1570  1  0.09129595  0.66725069  0.16606384  1
  O  O1571  1  0.11765577  0.66680112  0.24015019  1
  C  C1572  1  0.12186528  0.72133021  0.23375353  1
  C  C1573  1  0.12259562  0.74711334  0.22746470  1
  Zn  Zn1574  1  0.12557397  0.62601902  0.22146067  1
  H  H1575  1  0.21268039  0.62659303  0.23511843  1
  O  O1576  1  0.24522550  0.62885349  0.16409513  1
  C  C1577  1  0.12774322  0.67673743  0.22284343  1
  C  C1578  1  0.12838365  0.70438729  0.21633767  1
  O  O1579  1  0.13844034  0.66270919  0.20765349  1
  C  C1580  1  0.13638999  0.73684458  0.18553000  1
  C  C1581  1  0.13673186  0.71187949  0.19207630  1
  H  H1582  1  0.14369422  0.69852574  0.17902509  1
  O  O1583  1  0.15301839  0.72952195  0.14528918  1
  C  C1584  1  0.14260743  0.74461129  0.15871520  1
  C  C1585  1  0.26303499  0.62708575  0.24280633  1
  C  C1586  1  0.25412209  0.62922084  0.21629106  1
  C  C1587  1  0.27401717  0.62615912  0.19607069  1
  C  C1588  1  0.26772678  0.62928336  0.17027328  1
  O  O1589  1  0.28601576  0.62997997  0.15558829  1
  O  O1590  1  0.35988470  0.73638529  0.15233294  1
  O  O1591  1  0.31616698  0.69031812  0.20952209  1
  C  C1592  1  0.29867248  0.70442138  0.21308030  1
  H  H1593  1  0.33504517  0.71486873  0.18477899  1
  C  C1594  1  0.32194685  0.73064632  0.18564108  1
  C  C1595  1  0.30105424  0.73013006  0.20112541  1
  Zn  Zn1596  1  0.28657240  0.65128378  0.22155202  1
  O  O1597  1  0.28058498  0.69861952  0.22632744  1
  H  H1598  1  0.26717150  0.74895076  0.21329166  1
  C  C1599  1  0.28457381  0.74896899  0.20186948  1
  O  O1600  1  0.44808970  0.71716443  0.12698344  1
  H  H1601  1  0.48369994  0.70061734  0.14360979  1
  C  C1602  1  0.43638999  0.70140577  0.13942900  1
  O  O1603  1  0.41677407  0.63196216  0.19741940  1
  O  O1604  1  0.41306327  0.69917176  0.14040409  1
  C  C1605  1  0.43975078  0.63497773  0.20116667  1
  H  H1606  1  0.48823728  0.63852660  0.19564336  1
  C  C1607  1  0.49122596  0.66907601  0.16843019  1
  C  C1608  1  0.45016816  0.68517454  0.15581709  1
  C  C1609  1  0.47609740  0.68634907  0.15600111  1
  H  H1610  1  0.41682624  0.66881358  0.16904769  1
  C  C1611  1  0.43727665  0.66826241  0.16997191  1
  C  C1612  1  0.45228957  0.65258863  0.18465419  1
  C  C1613  1  0.47840092  0.65224573  0.18407348  1
  C  C1614  1  0.07770005  0.79948107  0.12830056  1
  O  O1615  1  0.10029067  0.80402264  0.12551493  1
  H  H1616  1  0.02862089  0.79962689  0.13364732  1
  C  C1617  1  0.02233681  0.82620326  0.16355389  1
  H  H1618  1  0.02460291  0.85409722  0.19376220  1
  C  C1619  1  0.03703748  0.81282692  0.14644029  1
  C  C1620  1  0.06309518  0.81336271  0.14653810  1
  C  C1621  1  0.07534375  0.82920698  0.16294582  1
  H  H1622  1  0.09614190  0.83090098  0.16389229  1
  C  C1623  1  0.06075840  0.84291208  0.17941359  1
  C  C1624  1  0.03480241  0.84222452  0.18034637  1
  C  C1625  1  0.07476680  0.85698877  0.19879570  1
  O  O1626  1  0.09840495  0.85582578  0.19614738  1
  O  O1627  1  0.06538459  0.86757385  0.21705872  1
  C  C1628  1  0.11218586  0.76512344  0.24574384  1
  C  C1629  1  0.11785654  0.79300283  0.24274056  1
  H  H1630  1  0.11920211  0.80048933  0.22224296  1
  C  C1631  1  0.13007506  0.75419076  0.20299065  1
  O  O1632  1  0.13372477  0.84009232  0.23499058  1
  H  H1633  1  0.12796028  0.77340067  0.19687685  1
  O  O1634  1  0.13878593  0.76675625  0.15179655  1
  C  C1635  1  0.21864349  0.81788142  0.22409414  1
  H  H1636  1  0.22193724  0.84165413  0.17989885  1
  C  C1637  1  0.23803003  0.81259081  0.20408172  1
  C  C1638  1  0.23685126  0.82742133  0.18269547  1
  O  O1639  1  0.20128987  0.83203872  0.21901254  1
  O  O1640  1  0.23471637  0.86026658  0.14566728  1
  O  O1641  1  0.21980235  0.80849887  0.24596405  1
  H  H1642  1  0.24580698  0.84087831  0.24845467  1
  C  C1643  1  0.25523490  0.84730602  0.14678047  1
  H  H1644  1  0.25623589  0.78170694  0.22287231  1
  C  C1645  1  0.32587397  0.75141286  0.17020918  1
  C  C1646  1  0.25701365  0.82747141  0.16632716  1
  C  C1647  1  0.25680564  0.79546357  0.20731264  1
  C  C1648  1  0.34792397  0.75525440  0.15391224  1
  O  O1649  1  0.34952332  0.77401863  0.14060523  1
  O  O1650  1  0.27178819  0.84830424  0.13121955  1
  C  C1651  1  0.27527588  0.79400272  0.18895020  1
  H  H1652  1  0.29068950  0.81058808  0.15481308  1
  C  C1653  1  0.29079345  0.77121424  0.18896236  1
  C  C1654  1  0.31053165  0.77129982  0.17124094  1
  C  C1655  1  0.27677729  0.81092064  0.16897889  1
  H  H1656  1  0.31548820  0.78745907  0.15945265  1
  C  C1657  1  0.30780116  0.85042224  0.22691301  1
  H  H1658  1  0.31641092  0.85181249  0.20855027  1
  O  O1659  1  0.35941133  0.86210327  0.23108851  1
  C  C1660  1  0.28398670  0.84562385  0.23329665  1
  O  O1661  1  0.41395223  0.79377873  0.14366952  1
  H  H1662  1  0.48736390  0.79856576  0.14750166  1
  C  C1663  1  0.43702758  0.79276075  0.14150795  1
  C  C1664  1  0.43858314  0.85817945  0.20776366  1
  O  O1665  1  0.41594965  0.85609323  0.21081525  1
  H  H1666  1  0.48454178  0.86313462  0.19658341  1
  C  C1667  1  0.47721833  0.81161277  0.15793315  1
  C  C1668  1  0.45098836  0.80950782  0.15930004  1
  C  C1669  1  0.45085777  0.84114063  0.18905897  1
  C  C1670  1  0.43732427  0.82382536  0.17505968  1
  H  H1671  1  0.41613638  0.82088889  0.17687029  1
  C  C1672  1  0.47659183  0.84675029  0.18571874  1
  C  C1673  1  0.49031194  0.82941447  0.17127116  1
  O  O1674  1  0.45205630  0.87352491  0.21879284  1
  Zn  Zn1675  1  0.12220735  0.87656588  0.22044488  1
  O  O1676  1  0.12140208  0.94014210  0.21722804  1
  H  H1677  1  0.04015543  0.97724892  0.24566431  1
  O  O1678  1  0.10489888  0.89408758  0.24847293  1
  C  C1679  1  0.23250839  0.99867865  0.14381588  1
  O  O1680  1  0.20015808  0.90827046  0.13845459  1
  C  C1681  1  0.19660963  0.93049673  0.13369133  1
  H  H1682  1  0.18416291  0.97699449  0.12875419  1
  C  C1683  1  0.13805482  0.92965913  0.20398330  1
  H  H1684  1  0.13426993  0.98057815  0.19362667  1
  C  C1685  1  0.17989417  0.94449540  0.14997209  1
  C  C1686  1  0.16066242  0.98297750  0.16288736  1
  C  C1687  1  0.14719657  0.97041433  0.18134108  1
  O  O1688  1  0.14374868  0.90808764  0.20737123  1
  C  C1689  1  0.17510730  0.96920650  0.14589278  1
  C  C1690  1  0.16761447  0.93278601  0.16963109  1
  H  H1691  1  0.17113641  0.91361263  0.17492919  1
  C  C1692  1  0.15050829  0.94539117  0.18486596  1
  O  O1693  1  0.37020306  0.91165626  0.19902840  1
  H  H1694  1  0.36088784  0.98217864  0.19735361  1
  C  C1695  1  0.32865247  0.93351678  0.17341672  1
  C  C1696  1  0.28938767  0.93150152  0.15098798  1
  C  C1697  1  0.32503167  0.98656173  0.17811411  1
  C  C1698  1  0.30749443  0.97256954  0.16465318  1
  O  O1699  1  0.29434880  0.90930203  0.14832963  1
  C  C1700  1  0.36830153  0.93512173  0.19861867  1
  C  C1701  1  0.34526840  0.97286546  0.18772372  1
  H  H1702  1  0.29047046  0.98181677  0.15649896  1
  H  H1703  1  0.32868169  0.91329477  0.17267195  1
  C  C1704  1  0.34649312  0.94743892  0.18569256  1
  C  C1705  1  0.30907594  0.94720035  0.16303560  1
  O  O1706  1  0.26997958  0.94186472  0.14194340  1
  Zn  Zn1707  1  0.39145945  0.88726921  0.22216444  1
  H  H1708  1  0.46078964  0.99343331  0.23958509  1
  O  O1709  1  0.38209773  0.94871480  0.21042697  1
  C  C1710  1  0.47682665  0.98197109  0.23681936  1
  C  C1711  1  0.49457499  0.94257550  0.22953131  1
  C  C1712  1  0.44749698  0.94798514  0.23207807  1
  O  O1713  1  0.44740125  0.92601848  0.22570772  1
  C  C1714  1  0.47413884  0.95727695  0.23283152  1
  O  O1715  1  0.42832151  0.95972747  0.23843048  1
  H  H1716  1  0.49307216  0.92304651  0.22546495  1
  O  O1717  1  0.05279538  0.58642018  0.26554182  1
  C  C1718  1  0.05295313  0.56437406  0.25941610  1
  Zn  Zn1719  1  0.11880821  0.61617865  0.28340578  1
  O  O1720  1  0.12096485  0.55233911  0.27961489  1
  O  O1721  1  0.07282437  0.55351118  0.25521643  1
  H  H1722  1  0.00593188  0.58404863  0.25489856  1
  O  O1723  1  0.12080449  0.58116399  0.30808463  1
  H  H1724  1  0.04492830  0.51656434  0.25549141  1
  C  C1725  1  0.02734890  0.52606184  0.25182046  1
  C  C1726  1  0.02872503  0.55126458  0.25336706  1
  C  C1727  1  0.00622030  0.56382362  0.25307725  1
  C  C1728  1  0.12827247  0.56104230  0.30053242  1
  H  H1729  1  0.14331933  0.51121174  0.29752030  1
  C  C1730  1  0.14782368  0.54699016  0.31443990  1
  C  C1731  1  0.16000478  0.56112016  0.33313860  1
  H  H1732  1  0.15583168  0.58094081  0.33531041  1
  C  C1733  1  0.18720651  0.52411460  0.34115677  1
  C  C1734  1  0.15303711  0.52226675  0.31133677  1
  C  C1735  1  0.17976785  0.54800858  0.34344678  1
  C  C1736  1  0.17184220  0.51026344  0.32493340  1
  H  H1737  1  0.20140848  0.51531287  0.35387399  1
  C  C1738  1  0.19530547  0.56189785  0.36308983  1
  C  C1739  1  0.23588074  0.61623649  0.33197103  1
  C  C1740  1  0.23082779  0.61800740  0.30450127  1
  O  O1741  1  0.21701819  0.61634054  0.34573679  1
  C  C1742  1  0.20555383  0.61759213  0.29782440  1
  C  C1743  1  0.19928303  0.62159078  0.27293006  1
  C  C1744  1  0.21804758  0.62209849  0.25434838  1
  C  C1745  1  0.24336947  0.62219022  0.26083219  1
  C  C1746  1  0.24903829  0.62065071  0.28639479  1
  H  H1747  1  0.19212885  0.61625870  0.31241069  1
  C  C1748  1  0.17242343  0.62297697  0.26604213  1
  O  O1749  1  0.15792910  0.62212787  0.28476509  1
  O  O1750  1  0.18902815  0.58164546  0.37243699  1
  O  O1751  1  0.21496064  0.55061062  0.36835998  1
  C  C1752  1  0.31444617  0.54870075  0.35208489  1
  C  C1753  1  0.32615273  0.56122076  0.33279004  1
  C  C1754  1  0.31615666  0.52278395  0.35289745  1
  H  H1755  1  0.32340969  0.58045642  0.32749750  1
  C  C1756  1  0.33267976  0.50953562  0.33799618  1
  C  C1757  1  0.34283174  0.54897755  0.31685274  1
  C  C1758  1  0.34614460  0.52346618  0.32016809  1
  C  C1759  1  0.29862355  0.56440981  0.36909302  1
  O  O1760  1  0.29766672  0.58700475  0.36494690  1
  H  H1761  1  0.30545146  0.51368491  0.36709004  1
  O  O1762  1  0.35653788  0.58468148  0.29418906  1
  C  C1763  1  0.35786221  0.56197813  0.29735777  1
  H  H1764  1  0.36044616  0.51562304  0.30796339  1
  O  O1765  1  0.25767153  0.61672214  0.34120415  1
  H  H1766  1  0.29703656  0.61847145  0.26720293  1
  O  O1767  1  0.34502180  0.62365469  0.25329817  1
  H  H1768  1  0.26954955  0.61742029  0.29223167  1
  O  O1769  1  0.37247568  0.54866438  0.28474270  1
  Zn  Zn1770  1  0.37837280  0.60878726  0.27129576  1
  C  C1771  1  0.45351278  0.55643089  0.26366818  1
  C  C1772  1  0.47806838  0.54477593  0.26031760  1
  O  O1773  1  0.43413002  0.54404568  0.26084983  1
  C  C1774  1  0.47816870  0.51970385  0.25418975  1
  O  O1775  1  0.45331137  0.57860031  0.26858969  1
  C  C1776  1  0.49941642  0.55951630  0.26285067  1
  H  H1777  1  0.45984994  0.51118958  0.25122355  1
  H  H1778  1  0.49815960  0.57967477  0.26470554  1
  Zn  Zn1779  1  0.39524630  0.55863803  0.25390031  1
  O  O1780  1  0.06100692  0.64018412  0.28079023  1
  H  H1781  1  0.02563807  0.65401997  0.30273489  1
  O  O1782  1  0.09630617  0.64672780  0.29837798  1
  C  C1783  1  0.07358862  0.64891716  0.29785714  1
  C  C1784  1  0.06030970  0.66036700  0.32056886  1
  C  C1785  1  0.07488595  0.67046583  0.33957634  1
  H  H1786  1  0.09534756  0.66908134  0.34118660  1
  C  C1787  1  0.03482172  0.66192979  0.31937026  1
  C  C1788  1  0.02133608  0.67263807  0.33931728  1
  C  C1789  1  0.06033485  0.68023374  0.35852483  1
  C  C1790  1  0.03493794  0.68280472  0.35969887  1
  H  H1791  1  0.10385608  0.73668626  0.27803429  1
  O  O1792  1  0.11824773  0.73948298  0.32143991  1
  H  H1793  1  0.11478715  0.71396557  0.25171715  1
  C  C1794  1  0.21553574  0.74035590  0.35236264  1
  C  C1795  1  0.23892916  0.72926607  0.34642103  1
  C  C1796  1  0.19924146  0.72463390  0.36526034  1
  C  C1797  1  0.22943118  0.69118013  0.36701725  1
  C  C1798  1  0.24599754  0.70520690  0.35294330  1
  C  C1799  1  0.20511438  0.70025221  0.37138149  1
  C  C1800  1  0.17292408  0.73163244  0.37119008  1
  H  H1801  1  0.26468086  0.69971049  0.34775374  1
  C  C1802  1  0.26076630  0.74253126  0.33310041  1
  C  C1803  1  0.28446999  0.74217954  0.34510615  1
  H  H1804  1  0.28621546  0.73727328  0.36496434  1
  O  O1805  1  0.33126498  0.73636071  0.36554812  1
  O  O1806  1  0.43651380  0.63965004  0.26792606  1
  O  O1807  1  0.39943008  0.64130368  0.28628534  1
  C  C1808  1  0.42182595  0.64732514  0.28397972  1
  C  C1809  1  0.45943775  0.66600568  0.30313343  1
  C  C1810  1  0.43095669  0.69449563  0.33655852  1
  C  C1811  1  0.42006143  0.67843243  0.31976445  1
  H  H1812  1  0.39982663  0.67758718  0.31822421  1
  C  C1813  1  0.43387316  0.66414126  0.30318704  1
  C  C1814  1  0.45647424  0.69663432  0.33787028  1
  H  H1815  1  0.46946420  0.65342541  0.29030422  1
  C  C1816  1  0.47056955  0.68165102  0.32091759  1
  H  H1817  1  0.46502126  0.70835928  0.35245970  1
  C  C1818  1  0.41742828  0.71102471  0.35534037  1
  O  O1819  1  0.39388756  0.70905054  0.35572227  1
  O  O1820  1  0.42922986  0.72382732  0.36963507  1
  H  H1821  1  0.49925046  0.70577379  0.35459387  1
  C  C1822  1  0.49777098  0.68038210  0.32357330  1
  H  H1823  1  0.01652241  0.78990890  0.36903680  1
  H  H1824  1  0.01594586  0.83887504  0.30359860  1
  C  C1825  1  0.02550893  0.82669396  0.31656147  1
  C  C1826  1  0.06405435  0.81178378  0.33396591  1
  C  C1827  1  0.05138457  0.82606353  0.31684573  1
  Zn  Zn1828  1  0.09331307  0.78899624  0.27279473  1
  C  C1829  1  0.06509754  0.84070718  0.29683670  1
  O  O1830  1  0.08724323  0.83987988  0.29532489  1
  C  C1831  1  0.02590077  0.79998751  0.35249940  1
  H  H1832  1  0.08443876  0.81249909  0.33425055  1
  C  C1833  1  0.05180802  0.79842458  0.35259666  1
  O  O1834  1  0.05301314  0.85178632  0.27936504  1
  C  C1835  1  0.01222526  0.81308967  0.33466066  1
  C  C1836  1  0.10934234  0.75565352  0.27392682  1
  C  C1837  1  0.06559753  0.78693597  0.37365102  1
  C  C1838  1  0.11916702  0.77174820  0.29380639  1
  C  C1839  1  0.12079141  0.76182522  0.31978758  1
  O  O1840  1  0.12029657  0.77738479  0.33749289  1
  C  C1841  1  0.12263571  0.81001092  0.26373542  1
  H  H1842  1  0.24056796  0.75114504  0.29998753  1
  C  C1843  1  0.12817557  0.79751867  0.28823311  1
  H  H1844  1  0.21260828  0.75923242  0.34735528  1
  H  H1845  1  0.13943515  0.80861906  0.30267024  1
  O  O1846  1  0.19349440  0.80321361  0.33617635  1
  C  C1847  1  0.20549582  0.80767690  0.31713494  1
  O  O1848  1  0.19615021  0.80253173  0.29555674  1
  O  O1849  1  0.15439314  0.83879080  0.27023256  1
  Zn  Zn1850  1  0.19369985  0.83023447  0.26840425  1
  C  C1851  1  0.23172210  0.81885269  0.31921585  1
  H  H1852  1  0.23665373  0.82082716  0.28003910  1
  H  H1853  1  0.23309137  0.82070641  0.35981830  1
  C  C1854  1  0.13571176  0.83312060  0.25722197  1
  C  C1855  1  0.24528473  0.82560336  0.29839480  1
  C  C1856  1  0.24317134  0.82516718  0.34234520  1
  O  O1857  1  0.21524497  0.86422698  0.27473823  1
  O  O1858  1  0.16284532  0.75159299  0.36764974  1
  C  C1859  1  0.32872592  0.75179452  0.34721079  1
  C  C1860  1  0.30425660  0.75313603  0.33290865  1
  C  C1861  1  0.25912128  0.75217277  0.30937472  1
  O  O1862  1  0.34662996  0.76171099  0.33906836  1
  C  C1863  1  0.30307320  0.76151198  0.30846096  1
  O  O1864  1  0.26037245  0.76730251  0.25846483  1
  C  C1865  1  0.28006525  0.76094899  0.29689976  1
  H  H1866  1  0.31906787  0.77018985  0.29843350  1
  C  C1867  1  0.28004153  0.77093324  0.26991823  1
  C  C1868  1  0.26580851  0.83643100  0.34413030  1
  C  C1869  1  0.27941244  0.84344329  0.32270118  1
  H  H1870  1  0.29743772  0.85128193  0.32297004  1
  C  C1871  1  0.26923766  0.83793827  0.29872055  1
  H  H1872  1  0.31776049  0.85224093  0.29065513  1
  C  C1873  1  0.28158103  0.84513367  0.27478829  1
  C  C1874  1  0.30694670  0.85094646  0.27333851  1
  O  O1875  1  0.35710974  0.86487318  0.27171438  1
  O  O1876  1  0.29923946  0.77853127  0.26061804  1
  C  C1877  1  0.26706182  0.84130830  0.25123912  1
  C  C1878  1  0.34654849  0.86103375  0.25097967  1
  C  C1879  1  0.31987580  0.85450720  0.25060033  1
  C  C1880  1  0.27872667  0.83853845  0.36989055  1
  O  O1881  1  0.29812417  0.85247945  0.37111453  1
  C  C1882  1  0.43875074  0.83217123  0.32860584  1
  H  H1883  1  0.41896399  0.83340006  0.32936570  1
  C  C1884  1  0.45220303  0.84836861  0.31249435  1
  C  C1885  1  0.47765149  0.81240733  0.33896778  1
  C  C1886  1  0.47751937  0.84799306  0.30973163  1
  C  C1887  1  0.45190175  0.81446694  0.34092970  1
  H  H1888  1  0.48742232  0.86128104  0.29783090  1
  H  H1889  1  0.48680544  0.79650911  0.34791159  1
  C  C1890  1  0.43530493  0.86658523  0.29978507  1
  C  C1891  1  0.49097880  0.83035928  0.32376311  1
  C  C1892  1  0.43565043  0.79701814  0.35671152  1
  O  O1893  1  0.41346369  0.80000417  0.35859317  1
  O  O1894  1  0.41268597  0.86792023  0.30297835  1
  O  O1895  1  0.44639509  0.77958647  0.36897259  1
  Zn  Zn1896  1  0.07514053  0.87629188  0.25899493  1
  H  H1897  1  0.00370234  0.90919349  0.27108111  1
  O  O1898  1  0.04767491  0.90617914  0.26418923  1
  C  C1899  1  0.02587120  0.94191981  0.26100768  1
  C  C1900  1  0.05011816  0.92861710  0.26127738  1
  C  C1901  1  0.02455074  0.96594205  0.25149955  1
  O  O1902  1  0.06929752  0.94069579  0.26014964  1
  C  C1903  1  0.00416666  0.92885580  0.26696664  1
  C  C1904  1  0.00091732  0.97754940  0.25321730  1
  Zn  Zn1905  1  0.10816294  0.92936994  0.25373952  1
  O  O1906  1  0.12800611  0.95378784  0.27962848  1
  C  C1907  1  0.23471184  0.99266272  0.30366902  1
  C  C1908  1  0.20580783  0.98528552  0.26904449  1
  H  H1909  1  0.14010886  0.99345509  0.29497023  1
  C  C1910  1  0.21028516  0.88548028  0.26540619  1
  C  C1911  1  0.18801222  0.99272855  0.33846553  1
  O  O1912  1  0.14795059  0.92142552  0.28878564  1
  C  C1913  1  0.14577807  0.94312793  0.29112990  1
  C  C1914  1  0.15414192  0.98563830  0.30750668  1
  C  C1915  1  0.21648159  0.95603604  0.35012970  1
  C  C1916  1  0.16057555  0.96091139  0.30796645  1
  H  H1917  1  0.18598386  0.93145882  0.32017004  1
  C  C1918  1  0.18130555  0.95127489  0.32099228  1
  C  C1919  1  0.19384759  0.96757987  0.33678963  1
  O  O1920  1  0.22038459  0.93345168  0.35052742  1
  C  C1921  1  0.22425214  0.90600877  0.28050753  1
  O  O1922  1  0.23170810  0.96942669  0.36091360  1
  C  C1923  1  0.22312429  0.97594562  0.28701666  1
  C  C1924  1  0.21766193  0.93006466  0.27603536  1
  C  C1925  1  0.22776001  0.94892303  0.29049952  1
  H  H1926  1  0.20390098  0.93214429  0.26076659  1
  H  H1927  1  0.19567898  0.97382859  0.25597002  1
  C  C1928  1  0.24131449  0.89809851  0.29862926  1
  O  O1929  1  0.19431061  0.88866942  0.25041910  1
  H  H1930  1  0.24525755  0.87710427  0.30134516  1
  C  C1931  1  0.24691505  0.94247672  0.30765440  1
  H  H1932  1  0.24904661  0.98521912  0.31664718  1
  C  C1933  1  0.33362188  0.99523704  0.33035267  1
  C  C1934  1  0.25296154  0.91821877  0.31045781  1
  H  H1935  1  0.35793799  0.99238442  0.29620303  1
  H  H1936  1  0.30859014  0.98981481  0.36364766  1
  H  H1937  1  0.25518525  0.95734145  0.31816865  1
  O  O1938  1  0.28233331  0.89328906  0.33492296  1
  C  C1939  1  0.27374100  0.91342058  0.32863159  1
  O  O1940  1  0.27820600  0.93196015  0.34183772  1
  C  C1941  1  0.34923436  0.98310989  0.31286705  1
  C  C1942  1  0.32807684  0.95761206  0.35386426  1
  C  C1943  1  0.32262106  0.98206660  0.35032032  1
  C  C1944  1  0.34329148  0.94494979  0.33692939  1
  H  H1945  1  0.34915579  0.92542284  0.33842700  1
  C  C1946  1  0.35384970  0.95815050  0.31764014  1
  C  C1947  1  0.36927969  0.94467387  0.29850692  1
  O  O1948  1  0.37129459  0.92177640  0.30051560  1
  O  O1949  1  0.44681915  0.88046763  0.28464377  1
  O  O1950  1  0.37775502  0.95584082  0.27960821  1
  Zn  Zn1951  1  0.38607260  0.89106958  0.28138670  1
  Zn  Zn1952  1  0.43853266  0.89599484  0.25054871  1
  O  O1953  1  0.40135664  0.90482339  0.25050624  1
  Zn  Zn1954  1  0.39404625  0.93916661  0.25010467  1
  Zn  Zn1955  1  0.21350364  0.61185100  0.38575781  1
  O  O1956  1  0.21219735  0.60561461  0.45267096  1
  O  O1957  1  0.24500454  0.59866694  0.39912536  1
  Zn  Zn1958  1  0.24558537  0.59765940  0.43750016  1
  Zn  Zn1959  1  0.24629725  0.56328138  0.39121880  1
  O  O1960  1  0.19085755  0.62058587  0.42126036  1
  C  C1961  1  0.19760907  0.62115053  0.44313262  1
  O  O1962  1  0.23901700  0.54187157  0.42249915  1
  C  C1963  1  0.25042724  0.54350062  0.44325408  1
  O  O1964  1  0.28538015  0.55366938  0.38453379  1
  O  O1965  1  0.25476528  0.56307691  0.45447805  1
  C  C1966  1  0.25607973  0.51879264  0.45524719  1
  H  H1967  1  0.26820017  0.53530390  0.48971580  1
  C  C1968  1  0.26410446  0.51895651  0.47999422  1
  Zn  Zn1969  1  0.27029141  0.61643172  0.37981041  1
  O  O1970  1  0.28195372  0.61396399  0.44682343  1
  H  H1971  1  0.02648291  0.69290566  0.37627215  1
  C  C1972  1  0.07346033  0.69304861  0.37972178  1
  O  O1973  1  0.09622800  0.69355022  0.37705800  1
  O  O1974  1  0.06205086  0.70639347  0.39539336  1
  O  O1975  1  0.11107330  0.74657193  0.40569168  1
  C  C1976  1  0.02821816  0.74278723  0.48948159  1
  H  H1977  1  0.01957224  0.74926987  0.47144205  1
  Zn  Zn1978  1  0.07421494  0.74309513  0.40728122  1
  O  O1979  1  0.05692188  0.73930503  0.44489067  1
  C  C1980  1  0.05404413  0.74135220  0.48866726  1
  C  C1981  1  0.06854832  0.74103012  0.46462449  1
  Zn  Zn1982  1  0.12057376  0.74649380  0.44124889  1
  O  O1983  1  0.09151654  0.73720884  0.46576569  1
  O  O1984  1  0.15971188  0.71326101  0.37921296  1
  Zn  Zn1985  1  0.12521668  0.71474809  0.39567801  1
  H  H1986  1  0.20166538  0.63023625  0.49598244  1
  O  O1987  1  0.14749577  0.72212257  0.45214051  1
  O  O1988  1  0.14656233  0.69482866  0.42305152  1
  C  C1989  1  0.23697280  0.66661211  0.37764538  1
  H  H1990  1  0.19048926  0.68841429  0.38077904  1
  O  O1991  1  0.21995854  0.65508717  0.38843780  1
  C  C1992  1  0.15264996  0.70083562  0.44454919  1
  C  C1993  1  0.19165575  0.64424776  0.48468694  1
  C  C1994  1  0.18758064  0.64192702  0.45966752  1
  C  C1995  1  0.17404761  0.66020395  0.44662273  1
  H  H1996  1  0.17105743  0.66007690  0.42668830  1
  C  C1997  1  0.16458035  0.68065158  0.45937656  1
  C  C1998  1  0.16736729  0.68216841  0.48536559  1
  H  H1999  1  0.15921093  0.69817017  0.49554965  1
  C  C2000  1  0.17936789  0.66368279  0.49809742  1
  O  O2001  1  0.29521049  0.62732257  0.41098945  1
  O  O2002  1  0.25878726  0.65916055  0.37860849  1
  C  C2003  1  0.29587821  0.62759893  0.43478204  1
  H  H2004  1  0.29900469  0.63295686  0.48255371  1
  Zn  Zn2005  1  0.36712477  0.72626860  0.37593732  1
  H  H2006  1  0.32630010  0.65925507  0.41074622  1
  C  C2007  1  0.31325250  0.64539607  0.44720329  1
  C  C2008  1  0.32716201  0.66123018  0.43178905  1
  C  C2009  1  0.34141294  0.67687298  0.44588158  1
  C  C2010  1  0.34061587  0.67800558  0.47210719  1
  C  C2011  1  0.31239391  0.64584363  0.47337557  1
  C  C2012  1  0.35592223  0.69722746  0.43265380  1
  O  O2013  1  0.35506526  0.69832630  0.40954118  1
  H  H2014  1  0.35159519  0.69205534  0.48133449  1
  C  C2015  1  0.32734227  0.66101624  0.48747901  1
  O  O2016  1  0.37016192  0.71089924  0.44579337  1
  Zn  Zn2017  1  0.37340934  0.74880309  0.43219408  1
  O  O2018  1  0.38645726  0.74583632  0.39847478  1
  C  C2019  1  0.47528768  0.74586070  0.49431653  1
  O  O2020  1  0.08805492  0.79031832  0.37528561  1
  O  O2021  1  0.05363224  0.77292784  0.38891097  1
  Zn  Zn2022  1  0.12507996  0.76854780  0.37808375  1
  O  O2023  1  0.12781645  0.78503098  0.44522436  1
  H  H2024  1  0.14134024  0.81100314  0.47963034  1
  O  O2025  1  0.14192145  0.79356753  0.40858684  1
  C  C2026  1  0.14281277  0.79653626  0.43107793  1
  H  H2027  1  0.17790021  0.82549364  0.40868526  1
  C  C2028  1  0.17731055  0.82682392  0.42866066  1
  C  C2029  1  0.15951171  0.81475868  0.44305290  1
  C  C2030  1  0.15698828  0.81815176  0.46920541  1
  C  C2031  1  0.19387553  0.84259876  0.44065287  1
  C  C2032  1  0.19211018  0.84643160  0.46616022  1
  C  C2033  1  0.17424929  0.83422066  0.48087620  1
  H  H2034  1  0.20637258  0.85922259  0.47382222  1
  C  C2035  1  0.21443829  0.85436004  0.42526023  1
  O  O2036  1  0.21612611  0.85017643  0.40311023  1
  O  O2037  1  0.23035939  0.86838944  0.43622686  1
  O  O2038  1  0.26983209  0.82964753  0.38859324  1
  H  H2039  1  0.33299839  0.79216590  0.48535028  1
  O  O2040  1  0.35203870  0.79596755  0.41495860  1
  O  O2041  1  0.34432286  0.77076500  0.44436158  1
  C  C2042  1  0.31472281  0.82890141  0.48722911  1
  C  C2043  1  0.31168980  0.85334982  0.45164114  1
  H  H2044  1  0.32616956  0.83871601  0.41692021  1
  C  C2045  1  0.32603480  0.80933428  0.47605518  1
  C  C2046  1  0.33076477  0.81336301  0.45029628  1
  C  C2047  1  0.30615111  0.85124692  0.47689338  1
  C  C2048  1  0.34255497  0.79219843  0.43488362  1
  C  C2049  1  0.32439715  0.83488701  0.43743966  1
  H  H2050  1  0.29742574  0.86610175  0.48818136  1
  Zn  Zn2051  1  0.41984452  0.75795951  0.38877193  1
  C  C2052  1  0.46476326  0.75202859  0.47092443  1
  H  H2053  1  0.47630282  0.75397132  0.45384632  1
  C  C2054  1  0.42619130  0.75050986  0.49198841  1
  C  C2055  1  0.43948850  0.75507466  0.47021201  1
  O  O2056  1  0.43441079  0.76616766  0.42624329  1
  O  O2057  1  0.40320674  0.76820712  0.45196889  1
  C  C2058  1  0.42567164  0.76387441  0.44752132  1
  H  H2059  1  0.40605277  0.75282841  0.49055701  1
  H  H2060  1  0.23200387  0.99355919  0.40132505  1
  C  C2061  1  0.23647239  0.99533082  0.42194345  1
  H  H2062  1  0.24249510  0.96049347  0.47536590  1
  C  C2063  1  0.23564381  0.94971930  0.43015281  1
  C  C2064  1  0.24396224  0.97687652  0.46400080  1
  O  O2065  1  0.23245736  0.94794404  0.40729153  1
  C  C2066  1  0.23818782  0.97604474  0.43906293  1
  O  O2067  1  0.23488612  0.93240777  0.44431306  1
  C  C2068  1  0.23245162  0.88827515  0.49558355  1
  O  O2069  1  0.22539674  0.90631145  0.49908116  1
  O  O2070  1  0.26709699  0.90578179  0.39306980  1
  O  O2071  1  0.29032970  0.89253151  0.44801296  1
  O  O2072  1  0.31333813  0.87750709  0.41739325  1
  Zn  Zn2073  1  0.29774029  0.89038811  0.37736793  1
  O  O2074  1  0.29874146  0.95484729  0.38778199  1
  Zn  Zn2075  1  0.25932062  0.93914620  0.37796333  1
  C  C2076  1  0.31519082  0.94496022  0.37561055  1
  O  O2077  1  0.32240149  0.92320554  0.37833179  1
  Zn  Zn2078  1  0.25399328  0.89653779  0.42723053  1
  C  C2079  1  0.30451407  0.87638720  0.43901024  1
  O  O2080  1  0.22721856  0.61885702  0.56676054  1
  O  O2081  1  0.24658682  0.55800304  0.56067889  1
  O  O2082  1  0.24432475  0.53580769  0.59594631  1
  C  C2083  1  0.24756005  0.53820495  0.57307561  1
  C  C2084  1  0.25659323  0.51534884  0.55962907  1
  H  H2085  1  0.25550627  0.53355626  0.52457808  1
  C  C2086  1  0.26096069  0.51719043  0.53379629  1
  O  O2087  1  0.26176379  0.59115620  0.61488750  1
  Zn  Zn2088  1  0.25872099  0.59242004  0.57692011  1
  O  O2089  1  0.29352420  0.60609499  0.56247604  1
  Zn  Zn2090  1  0.29593256  0.60694267  0.62462164  1
  C  C2091  1  0.30489871  0.62389513  0.57107082  1
  H  H2092  1  0.31253401  0.62358333  0.52154818  1
  O  O2093  1  0.29254220  0.54360407  0.62442022  1
  H  H2094  1  0.01998913  0.73777534  0.55241257  1
  C  C2095  1  0.02907214  0.73869244  0.53439573  1
  O  O2096  1  0.05809551  0.73066171  0.57810033  1
  C  C2097  1  0.06926251  0.73049540  0.55687499  1
  C  C2098  1  0.05509553  0.73711033  0.53344608  1
  C  C2099  1  0.01519685  0.74147745  0.51292760  1
  C  C2100  1  0.06772439  0.73820083  0.51048926  1
  Zn  Zn2101  1  0.12310618  0.74835424  0.56785450  1
  O  O2102  1  0.09109521  0.72331756  0.55551043  1
  H  H2103  1  0.08766625  0.73762713  0.50766333  1
  O  O2104  1  0.14398255  0.71866930  0.56100314  1
  H  H2105  1  0.20551017  0.63131620  0.53002731  1
  C  C2106  1  0.21733573  0.63528873  0.57896108  1
  O  O2107  1  0.22192247  0.63797159  0.60184999  1
  H  H2108  1  0.15888937  0.69802205  0.52847414  1
  O  O2109  1  0.15448028  0.70732318  0.59937209  1
  C  C2110  1  0.15559242  0.70456065  0.57636298  1
  C  C2111  1  0.19949791  0.65140577  0.56423084  1
  C  C2112  1  0.18561460  0.66781996  0.57838567  1
  H  H2113  1  0.18935609  0.66973391  0.59829989  1
  C  C2114  1  0.17023037  0.68396412  0.56479714  1
  C  C2115  1  0.16762981  0.68260914  0.53892588  1
  C  C2116  1  0.19625370  0.64705486  0.53930202  1
  C  C2117  1  0.18013514  0.66376238  0.52648179  1
  Zn  Zn2118  1  0.12751302  0.72912309  0.62039343  1
  O  O2119  1  0.30436616  0.62896999  0.59473584  1
  C  C2120  1  0.31896711  0.64065787  0.53050556  1
  H  H2121  1  0.32522099  0.66701834  0.58965359  1
  C  C2122  1  0.31767060  0.64352765  0.55685313  1
  C  C2123  1  0.32703460  0.66441774  0.56916766  1
  C  C2124  1  0.33483482  0.68309361  0.55375248  1
  C  C2125  1  0.33661952  0.68155511  0.52759416  1
  C  C2126  1  0.32946257  0.65944434  0.51572300  1
  C  C2127  1  0.34214069  0.70713310  0.56608860  1
  H  H2128  1  0.34318026  0.69734139  0.51717955  1
  O  O2129  1  0.34325678  0.70848504  0.58932334  1
  O  O2130  1  0.34820944  0.72486123  0.55260447  1
  Zn  Zn2131  1  0.37418063  0.71647829  0.61871279  1
  O  O2132  1  0.43070089  0.70572661  0.61042648  1
  O  O2133  1  0.43297515  0.73552257  0.55695163  1
  H  H2134  1  0.47283825  0.73733512  0.53606152  1
  C  C2135  1  0.42219600  0.73866602  0.53677628  1
  C  C2136  1  0.46386685  0.74107627  0.51759841  1
  O  O2137  1  0.39904410  0.74128846  0.53377956  1
  Zn  Zn2138  1  0.41975530  0.74337070  0.59710224  1
  O  O2139  1  0.38402495  0.74639960  0.59962695  1
  C  C2140  1  0.43826170  0.74382755  0.51443222  1
  O  O2141  1  0.11258893  0.75617495  0.60180036  1
  Zn  Zn2142  1  0.07627021  0.75319462  0.60586339  1
  O  O2143  1  0.05514339  0.78693702  0.60930826  1
  Zn  Zn2144  1  0.12398453  0.78793450  0.61621955  1
  O  O2145  1  0.08790057  0.80991040  0.61805885  1
  C  C2146  1  0.06496876  0.80449809  0.62049489  1
  O  O2147  1  0.13185367  0.78545838  0.55395805  1
  O  O2148  1  0.14321642  0.80706822  0.58676763  1
  C  C2149  1  0.14131557  0.80324666  0.56378370  1
  H  H2150  1  0.14823212  0.80412120  0.51238705  1
  C  C2151  1  0.15637786  0.82072262  0.52164834  1
  C  C2152  1  0.15620041  0.82108667  0.54714527  1
  C  C2153  1  0.16827072  0.83965509  0.56042952  1
  H  H2154  1  0.17068689  0.84035594  0.58116317  1
  C  C2155  1  0.18026560  0.85841894  0.54748191  1
  C  C2156  1  0.17056950  0.83866978  0.50822606  1
  C  C2157  1  0.18110325  0.85894165  0.52105765  1
  H  H2158  1  0.18832903  0.87495470  0.51084741  1
  O  O2159  1  0.18946853  0.87465252  0.58633717  1
  Zn  Zn2160  1  0.37440743  0.75196061  0.56494693  1
  C  C2161  1  0.31102846  0.82811269  0.56713644  1
  H  H2162  1  0.31039958  0.82862999  0.58802873  1
  C  C2163  1  0.33022660  0.81624689  0.55476586  1
  C  C2164  1  0.32965685  0.81569599  0.52890424  1
  C  C2165  1  0.31041262  0.82720583  0.51582556  1
  C  C2166  1  0.29199323  0.84035746  0.55432127  1
  H  H2167  1  0.34539006  0.80678928  0.51904072  1
  C  C2168  1  0.34828790  0.79997504  0.56891329  1
  C  C2169  1  0.29164746  0.84045102  0.52847579  1
  O  O2170  1  0.34739607  0.79944068  0.59239864  1
  O  O2171  1  0.36352940  0.78735373  0.55700858  1
  H  H2172  1  0.27817535  0.85259212  0.51957009  1
  O  O2173  1  0.27808863  0.85812227  0.59312264  1
  C  C2174  1  0.27489048  0.85511122  0.56980868  1
  O  O2175  1  0.25805583  0.86555681  0.55695661  1
  Zn  Zn2176  1  0.37375507  0.77650552  0.61645479  1
  O  O2177  1  0.44015516  0.77050753  0.61839504  1
  O  O2178  1  0.40909146  0.79675000  0.62276429  1
  C  C2179  1  0.19386541  0.87610776  0.56317080  1
  O  O2180  1  0.20476721  0.89382139  0.55284996  1
  O  O2181  1  0.24144418  0.90748918  0.59805465  1
  Zn  Zn2182  1  0.24305279  0.94296373  0.60614798  1
  Zn  Zn2183  1  0.20965422  0.89392864  0.61606788  1
  Zn  Zn2184  1  0.24542414  0.90284756  0.56022926  1
  O  O2185  1  0.20780745  0.95556702  0.61812352  1
  C  C2186  1  0.25877843  0.97895317  0.51340708  1
  H  H2187  1  0.26233870  0.96286460  0.50170415  1
  O  O2188  1  0.26184188  0.93550362  0.54429948  1
  C  C2189  1  0.26098156  0.97969620  0.53927188  1
  C  C2190  1  0.26459056  0.95646226  0.55453138  1
  O  O2191  1  0.26699918  0.95959924  0.57741693  1
  Zn  Zn2192  1  0.26441519  0.88453137  0.61693338  1
  H  H2193  1  0.25766425  0.99915951  0.57485074  1
  O  O2194  1  0.03953007  0.59652941  0.73932921  1
  O  O2195  1  0.11518631  0.56874746  0.71393553  1
  C  C2196  1  0.01833841  0.55829666  0.74560734  1
  C  C2197  1  0.04152867  0.57377079  0.74420137  1
  O  O2198  1  0.06212453  0.56319439  0.74578402  1
  Zn  Zn2199  1  0.06582364  0.62485841  0.74724817  1
  Zn  Zn2200  1  0.23433596  0.61273773  0.62787090  1
  O  O2201  1  0.20963975  0.56422211  0.62551445  1
  O  O2202  1  0.13449813  0.60226615  0.70147829  1
  C  C2203  1  0.13162179  0.58001463  0.70264839  1
  H  H2204  1  0.12929995  0.53096479  0.69743273  1
  H  H2205  1  0.20528518  0.53224166  0.70360646  1
  C  C2206  1  0.21298276  0.54680333  0.71612071  1
  C  C2207  1  0.19667506  0.57563677  0.64022025  1
  H  H2208  1  0.19255419  0.52610942  0.64375417  1
  O  O2209  1  0.19987713  0.59876380  0.64383878  1
  C  C2210  1  0.14671507  0.56388401  0.68695306  1
  C  C2211  1  0.14328690  0.53862873  0.68548292  1
  C  C2212  1  0.15906451  0.52409526  0.67035356  1
  C  C2213  1  0.17817468  0.56080390  0.65561973  1
  C  C2214  1  0.16352785  0.57544597  0.67137135  1
  H  H2215  1  0.16670445  0.59587244  0.67306777  1
  C  C2216  1  0.17763594  0.53561864  0.65474038  1
  C  C2217  1  0.23336182  0.55810049  0.70687149  1
  O  O2218  1  0.23207510  0.53416189  0.67084063  1
  C  C2219  1  0.20365944  0.55199604  0.74168202  1
  O  O2220  1  0.16987111  0.61515596  0.74466221  1
  H  H2221  1  0.21785063  0.62196509  0.73791234  1
  O  O2222  1  0.18511767  0.54231411  0.74994301  1
  C  C2223  1  0.23991138  0.58075941  0.74502474  1
  C  C2224  1  0.24252883  0.55152264  0.67995856  1
  C  C2225  1  0.24652122  0.57492907  0.72051793  1
  C  C2226  1  0.32942740  0.50270893  0.68128340  1
  H  H2227  1  0.30550804  0.50430305  0.64757020  1
  H  H2228  1  0.35205664  0.50913761  0.71409193  1
  Zn  Zn2229  1  0.25268606  0.55837646  0.62881794  1
  O  O2230  1  0.25694321  0.56569075  0.66752584  1
  O  O2231  1  0.31810796  0.57373571  0.62994220  1
  C  C2232  1  0.31014708  0.55284299  0.63533027  1
  H  H2233  1  0.26363238  0.58280220  0.71131157  1
  C  C2234  1  0.33867309  0.55391440  0.67156943  1
  H  H2235  1  0.34195367  0.57337543  0.66741434  1
  C  C2236  1  0.32233056  0.53915682  0.65746962  1
  C  C2237  1  0.34841830  0.54200659  0.69166726  1
  C  C2238  1  0.34424308  0.51702126  0.69779083  1
  C  C2239  1  0.31675859  0.51522453  0.66182157  1
  C  C2240  1  0.36545013  0.55677438  0.70876793  1
  O  O2241  1  0.37369542  0.57675502  0.70224997  1
  H  H2242  1  0.28951210  0.58509589  0.73847326  1
  Zn  Zn2243  1  0.36970740  0.61383613  0.72506751  1
  O  O2244  1  0.37286622  0.54646926  0.72902795  1
  O  O2245  1  0.33814466  0.59397322  0.74714513  1
  O  O2246  1  0.43286611  0.61464790  0.70490305  1
  Zn  Zn2247  1  0.43004189  0.61956935  0.74668383  1
  O  O2248  1  0.43286995  0.55403016  0.74855620  1
  O  O2249  1  0.09819994  0.71616563  0.64525854  1
  C  C2250  1  0.08630304  0.73060343  0.65889666  1
  C  C2251  1  0.06652442  0.73853067  0.72850098  1
  C  C2252  1  0.08426266  0.67108432  0.72603858  1
  C  C2253  1  0.08273116  0.72750078  0.68705466  1
  C  C2254  1  0.08912299  0.70397424  0.69511108  1
  H  H2255  1  0.09722425  0.68993432  0.68205674  1
  C  C2256  1  0.08136021  0.69772971  0.71934675  1
  C  C2257  1  0.07126433  0.71461992  0.73604805  1
  O  O2258  1  0.09559357  0.65561136  0.71324655  1
  C  C2259  1  0.07282638  0.74437545  0.70340931  1
  O  O2260  1  0.07551677  0.74781684  0.64811435  1
  O  O2261  1  0.07174382  0.66387267  0.74483411  1
  O  O2262  1  0.24930112  0.63307002  0.66048743  1
  Zn  Zn2263  1  0.12989785  0.62998530  0.72928149  1
  H  H2264  1  0.14183020  0.73168225  0.70560645  1
  H  H2265  1  0.23675367  0.63703282  0.70294920  1
  H  H2266  1  0.13406499  0.70846431  0.73218323  1
  O  O2267  1  0.14576025  0.74361264  0.65446390  1
  O  O2268  1  0.13876018  0.66755064  0.74368622  1
  C  C2269  1  0.25511861  0.64126103  0.71240244  1
  O  O2270  1  0.29031463  0.62932681  0.65897100  1
  C  C2271  1  0.27025595  0.63329525  0.67011389  1
  C  C2272  1  0.25990387  0.64919262  0.73714352  1
  C  C2273  1  0.27512358  0.64075050  0.69692760  1
  C  C2274  1  0.29954855  0.64683153  0.70482928  1
  H  H2275  1  0.31565804  0.64655972  0.69291309  1
  O  O2276  1  0.35010834  0.65100568  0.72916668  1
  C  C2277  1  0.30355536  0.65306542  0.72938785  1
  C  C2278  1  0.33062317  0.65853927  0.74083984  1
  C  C2279  1  0.28438148  0.65355028  0.74653106  1
  O  O2280  1  0.37701584  0.72919583  0.65895620  1
  O  O2281  1  0.39772355  0.68749246  0.62549086  1
  C  C2282  1  0.42124284  0.69087375  0.62532383  1
  O  O2283  1  0.39623779  0.62917784  0.69534781  1
  H  H2284  1  0.46790093  0.63238794  0.69044301  1
  C  C2285  1  0.41855550  0.62800871  0.69171671  1
  H  H2286  1  0.46968080  0.69031626  0.63393835  1
  H  H2287  1  0.41342683  0.72424633  0.68517006  1
  C  C2288  1  0.46031335  0.67595134  0.64492190  1
  C  C2289  1  0.43483151  0.67605226  0.64399077  1
  C  C2290  1  0.47427821  0.66047619  0.66101438  1
  C  C2291  1  0.43386561  0.64467510  0.67433104  1
  C  C2292  1  0.42057253  0.65845184  0.65761047  1
  H  H2293  1  0.40096209  0.65670742  0.65625882  1
  C  C2294  1  0.45989927  0.64435134  0.67645402  1
  C  C2295  1  0.44309051  0.70725100  0.72398531  1
  H  H2296  1  0.42404300  0.69950339  0.72345941  1
  C  C2297  1  0.44777638  0.73283801  0.71980186  1
  C  C2298  1  0.46159927  0.69185896  0.73123134  1
  C  C2299  1  0.49086061  0.72327902  0.72480628  1
  C  C2300  1  0.48665745  0.69923177  0.73302911  1
  C  C2301  1  0.47322074  0.74076029  0.71853961  1
  C  C2302  1  0.45677085  0.66371802  0.73736879  1
  O  O2303  1  0.43420348  0.65633046  0.73666978  1
  C  C2304  1  0.41169461  0.74317697  0.69406759  1
  O  O2305  1  0.47368750  0.65146784  0.74513806  1
  H  H2306  1  0.01606673  0.80258140  0.63158738  1
  H  H2307  1  0.06724076  0.76389877  0.69769070  1
  O  O2308  1  0.05069491  0.83730060  0.73781272  1
  H  H2309  1  0.06053623  0.78992486  0.72495818  1
  C  C2310  1  0.05072177  0.81837862  0.63954827  1
  H  H2311  1  0.08521298  0.83895890  0.65137996  1
  C  C2312  1  0.02536560  0.81507446  0.64337624  1
  C  C2313  1  0.06437360  0.83655265  0.65268405  1
  C  C2314  1  0.05017629  0.85122168  0.66841928  1
  C  C2315  1  0.02416805  0.84903113  0.67258788  1
  C  C2316  1  0.01120759  0.83105800  0.65908225  1
  H  H2317  1  0.01457582  0.86128886  0.68580655  1
  C  C2318  1  0.05240908  0.78193800  0.74195101  1
  C  C2319  1  0.05537902  0.75641597  0.74700706  1
  C  C2320  1  0.11689504  0.82710917  0.72697622  1
  O  O2321  1  0.11678985  0.83974653  0.70771287  1
  O  O2322  1  0.11594154  0.83543772  0.74863023  1
  C  C2323  1  0.12395669  0.80056868  0.72258184  1
  C  C2324  1  0.06370335  0.86940630  0.68406340  1
  O  O2325  1  0.08560383  0.87241911  0.67947209  1
  C  C2326  1  0.12510935  0.78376540  0.74211215  1
  C  C2327  1  0.13741665  0.75105591  0.71039961  1
  C  C2328  1  0.13276935  0.75956277  0.73531625  1
  C  C2329  1  0.13010621  0.79166991  0.69852339  1
  C  C2330  1  0.13731219  0.76782664  0.69208335  1
  H  H2331  1  0.12929649  0.80595857  0.68483430  1
  C  C2332  1  0.14213907  0.76368926  0.66454374  1
  O  O2333  1  0.13961815  0.78307052  0.65205424  1
  C  C2334  1  0.23155831  0.87199108  0.66358024  1
  C  C2335  1  0.22575713  0.87087228  0.69164225  1
  C  C2336  1  0.24502211  0.86945210  0.70800671  1
  C  C2337  1  0.20117857  0.87236477  0.70021665  1
  H  H2338  1  0.18564164  0.87423081  0.68785096  1
  C  C2339  1  0.24129333  0.86955669  0.73424267  1
  C  C2340  1  0.21687647  0.87046556  0.74307360  1
  C  C2341  1  0.19646440  0.87106960  0.72574973  1
  C  C2342  1  0.16976572  0.87300905  0.73325782  1
  O  O2343  1  0.25288850  0.87442563  0.65576232  1
  O  O2344  1  0.36487081  0.76744288  0.65562200  1
  O  O2345  1  0.34133725  0.86399305  0.73006879  1
  H  H2346  1  0.26372619  0.87023264  0.69951618  1
  C  C2347  1  0.28889489  0.86826181  0.74501232  1
  H  H2348  1  0.29275114  0.87063670  0.72526936  1
  Zn  Zn2349  1  0.38018622  0.87298280  0.71668594  1
  C  C2350  1  0.37565136  0.75051619  0.66662325  1
  H  H2351  1  0.37590937  0.79713878  0.69141853  1
  C  C2352  1  0.43086574  0.78959429  0.62757538  1
  C  C2353  1  0.43290103  0.86198955  0.68708171  1
  O  O2354  1  0.41093184  0.86678748  0.68430188  1
  Zn  Zn2355  1  0.43467370  0.86964042  0.74275967  1
  H  H2356  1  0.47943540  0.75979743  0.71300551  1
  C  C2357  1  0.42898905  0.75253824  0.71201324  1
  H  H2358  1  0.47621035  0.78202293  0.64587645  1
  C  C2359  1  0.39100112  0.78321282  0.69740234  1
  O  O2360  1  0.38958070  0.83020635  0.71933463  1
  C  C2361  1  0.39337053  0.75977116  0.68673879  1
  H  H2362  1  0.47881007  0.84853518  0.68927531  1
  C  C2363  1  0.40970927  0.81957896  0.72214330  1
  C  C2364  1  0.48338740  0.81594017  0.66649707  1
  C  C2365  1  0.40879710  0.79272768  0.71358394  1
  C  C2366  1  0.42707961  0.77628319  0.72232485  1
  C  C2367  1  0.46863684  0.79984830  0.65222329  1
  C  C2368  1  0.44400783  0.80440931  0.64724698  1
  C  C2369  1  0.46947293  0.83505513  0.67798851  1
  H  H2370  1  0.41283654  0.82957862  0.65148087  1
  C  C2371  1  0.43225716  0.82579196  0.65612397  1
  C  C2372  1  0.44461812  0.84053809  0.67337376  1
  O  O2373  1  0.42710216  0.82834615  0.73388469  1
  H  H2374  1  0.44132502  0.78363945  0.73451731  1
  O  O2375  1  0.44708329  0.87272159  0.70247774  1
  Zn  Zn2376  1  0.06631819  0.87555413  0.74215340  1
  Zn  Zn2377  1  0.11258836  0.88081418  0.70538173  1
  O  O2378  1  0.05277426  0.87895914  0.70248656  1
  O  O2379  1  0.09996855  0.88971443  0.74023404  1
  Zn  Zn2380  1  0.10327101  0.92502944  0.74269540  1
  O  O2381  1  0.11568101  0.95105499  0.71400016  1
  O  O2382  1  0.12463765  0.91918725  0.69094684  1
  C  C2383  1  0.00278057  0.93591883  0.73876265  1
  H  H2384  1  0.00205433  0.91535166  0.73688765  1
  C  C2385  1  0.02742060  0.97353477  0.74318390  1
  H  H2386  1  0.04586283  0.98233181  0.74674584  1
  C  C2387  1  0.00481116  0.98780033  0.74110966  1
  C  C2388  1  0.02558718  0.94833771  0.74207631  1
  C  C2389  1  0.04619127  0.93073740  0.74842830  1
  O  O2390  1  0.21275399  0.87530178  0.64964997  1
  C  C2391  1  0.12758573  0.94111558  0.69607517  1
  H  H2392  1  0.13450592  0.99264532  0.69702314  1
  O  O2393  1  0.18625269  0.92310382  0.62899948  1
  O  O2394  1  0.15459742  0.87733837  0.71635575  1
  C  C2395  1  0.19136660  0.94566935  0.63191285  1
  C  C2396  1  0.16014332  0.99754706  0.66567147  1
  H  H2397  1  0.18786940  0.99417985  0.63476994  1
  C  C2398  1  0.17568489  0.95877137  0.64985837  1
  C  C2399  1  0.15863238  0.94463348  0.66376398  1
  H  H2400  1  0.15677167  0.92479759  0.66130721  1
  C  C2401  1  0.14445590  0.95794869  0.68027457  1
  C  C2402  1  0.17562414  0.98430327  0.64886344  1
  C  C2403  1  0.14541423  0.98402739  0.68328954  1
  C  C2404  1  0.29230105  0.93241308  0.64130551  1
  C  C2405  1  0.35018913  0.94103182  0.67872988  1
  C  C2406  1  0.31266974  0.96847843  0.65625425  1
  O  O2407  1  0.29053757  0.90900513  0.63808895  1
  H  H2408  1  0.33339599  0.90758225  0.66391777  1
  C  C2409  1  0.33298763  0.92783851  0.66461985  1
  C  C2410  1  0.31441568  0.94267154  0.65446624  1
  C  C2411  1  0.33217590  0.98088002  0.66972406  1
  O  O2412  1  0.37098429  0.90297123  0.68881015  1
  C  C2413  1  0.35070981  0.96643463  0.68112031  1
  O  O2414  1  0.27546149  0.94677422  0.63473488  1
  C  C2415  1  0.36845231  0.92515629  0.69355622  1
  H  H2416  1  0.29685371  0.97849081  0.64748287  1
  H  H2417  1  0.36622289  0.97350313  0.69126615  1
  O  O2418  1  0.38204319  0.93800181  0.70764064  1
  C  C2419  1  0.47961572  0.96353508  0.74565952  1
  O  O2420  1  0.46038979  0.90139126  0.74474345  1
  Zn  Zn2421  1  0.40287971  0.92186753  0.73788400  1
  C  C2422  1  0.48205496  0.93854247  0.74821894  1
  H  H2423  1  0.46190942  0.97288888  0.74259661  1
  O  O2424  1  0.43897304  0.93659247  0.73858849  1
  O  O2425  1  0.40289134  0.88600407  0.74243213  1
  C  C2426  1  0.45886258  0.92481852  0.74397277  1
  O  O2427  1  0.11369059  0.55682903  0.78015664  1
  Zn  Zn2428  1  0.12256865  0.62121072  0.78800190  1
  O  O2429  1  0.10371462  0.61490787  0.75362284  1
  Zn  Zn2430  1  0.10015121  0.57828340  0.75024397  1
  H  H2431  1  0.03696379  0.52338367  0.75359898  1
  O  O2432  1  0.12298565  0.58543064  0.80792859  1
  C  C2433  1  0.12448452  0.56394229  0.79937536  1
  C  C2434  1  0.01951030  0.53296167  0.75048293  1
  H  H2435  1  0.13747247  0.51600981  0.79403620  1
  C  C2436  1  0.17040784  0.51284673  0.81631722  1
  C  C2437  1  0.15144876  0.52607096  0.80432591  1
  H  H2438  1  0.15928944  0.57997540  0.83441008  1
  C  C2439  1  0.14661376  0.55048808  0.81013890  1
  C  C2440  1  0.16320762  0.56183574  0.82692845  1
  C  C2441  1  0.18776291  0.52552923  0.83268893  1
  C  C2442  1  0.18316097  0.54929286  0.83774696  1
  C  C2443  1  0.20021484  0.56357105  0.85560730  1
  H  H2444  1  0.20303390  0.51632212  0.84111654  1
  O  O2445  1  0.19610123  0.58594778  0.85933779  1
  O  O2446  1  0.21869708  0.55314273  0.86406755  1
  H  H2447  1  0.23153780  0.60595577  0.79068752  1
  H  H2448  1  0.21604710  0.57074382  0.77592655  1
  C  C2449  1  0.21874626  0.56928101  0.75612424  1
  O  O2450  1  0.24242172  0.61324751  0.83683930  1
  O  O2451  1  0.16248506  0.61917844  0.78436403  1
  C  C2452  1  0.17538183  0.62357311  0.76579848  1
  C  C2453  1  0.25160659  0.60357004  0.78607207  1
  C  C2454  1  0.33115553  0.50973689  0.83256518  1
  C  C2455  1  0.25865626  0.59371444  0.76235755  1
  C  C2456  1  0.34298135  0.56060930  0.84029411  1
  H  H2457  1  0.34628308  0.58037013  0.84306305  1
  C  C2458  1  0.32315594  0.54900267  0.85090978  1
  C  C2459  1  0.31816975  0.52399028  0.84998777  1
  C  C2460  1  0.35106375  0.52180945  0.82040569  1
  C  C2461  1  0.35698286  0.54672558  0.82279802  1
  C  C2462  1  0.30183131  0.60103390  0.77323727  1
  C  C2463  1  0.26986672  0.61076041  0.80274560  1
  C  C2464  1  0.29504369  0.60977600  0.79668525  1
  C  C2465  1  0.32947550  0.60154172  0.76749428  1
  C  C2466  1  0.28335444  0.59378209  0.75605006  1
  H  H2467  1  0.30376269  0.51769621  0.86326257  1
  H  H2468  1  0.36356074  0.51199748  0.80786449  1
  C  C2469  1  0.26368542  0.61612478  0.82919245  1
  O  O2470  1  0.34303880  0.60861085  0.78480401  1
  H  H2471  1  0.30853075  0.61719502  0.81118075  1
  C  C2472  1  0.30523078  0.56385907  0.86849544  1
  O  O2473  1  0.31031276  0.58524510  0.87255355  1
  O  O2474  1  0.28047146  0.62131014  0.84535786  1
  C  C2475  1  0.37713489  0.55999155  0.80929921  1
  O  O2476  1  0.38117531  0.58253009  0.81423690  1
  O  O2477  1  0.38606281  0.55031721  0.79005719  1
  Zn  Zn2478  1  0.38694148  0.61224012  0.78911073  1
  Zn  Zn2479  1  0.39334975  0.56778393  0.75360148  1
  O  O2480  1  0.39445440  0.60443726  0.75145968  1
  C  C2481  1  0.49807646  0.56228592  0.76308642  1
  H  H2482  1  0.49886005  0.58233817  0.76013603  1
  H  H2483  1  0.45589398  0.51724186  0.75656948  1
  C  C2484  1  0.47478378  0.55125993  0.75953339  1
  C  C2485  1  0.49465521  0.51085814  0.76669782  1
  C  C2486  1  0.47344299  0.52584240  0.76214571  1
  C  C2487  1  0.45221290  0.56548195  0.75278042  1
  O  O2488  1  0.45455453  0.58839174  0.75063444  1
  O  O2489  1  0.05237856  0.62649838  0.78680864  1
  O  O2490  1  0.08581811  0.63174826  0.81059630  1
  C  C2491  1  0.06311432  0.63440720  0.80561778  1
  C  C2492  1  0.01143532  0.67157653  0.83591604  1
  C  C2493  1  0.02402261  0.65445020  0.82007171  1
  C  C2494  1  0.06444138  0.66454735  0.83975294  1
  C  C2495  1  0.04965436  0.65134212  0.82300419  1
  H  H2496  1  0.08464989  0.66180057  0.83940348  1
  C  C2497  1  0.05151508  0.68192283  0.85370591  1
  C  C2498  1  0.02542193  0.68569800  0.85332705  1
  H  H2499  1  0.01304279  0.64670224  0.80442448  1
  H  H2500  1  0.04683640  0.72929880  0.77614657  1
  O  O2501  1  0.11602680  0.71944201  0.84345282  1
  C  C2502  1  0.12176133  0.73659891  0.82868124  1
  O  O2503  1  0.02722865  0.73535339  0.81984143  1
  C  C2504  1  0.12444540  0.73070550  0.80205680  1
  H  H2505  1  0.12221374  0.69250642  0.81092728  1
  C  C2506  1  0.04515397  0.74866950  0.76987012  1
  H  H2507  1  0.01703904  0.69879362  0.86725578  1
  H  H2508  1  0.06776428  0.70701910  0.75454258  1
  C  C2509  1  0.06722803  0.69602159  0.87280886  1
  C  C2510  1  0.12831085  0.74799213  0.78239289  1
  C  C2511  1  0.12510831  0.70621075  0.79614438  1
  C  C2512  1  0.13096771  0.74231351  0.75718564  1
  C  C2513  1  0.13094127  0.70012687  0.77116250  1
  O  O2514  1  0.13089677  0.65975025  0.78299009  1
  C  C2515  1  0.13393734  0.67426789  0.76538941  1
  C  C2516  1  0.19831924  0.64077786  0.76903703  1
  C  C2517  1  0.19796281  0.65751390  0.78925290  1
  H  H2518  1  0.18274463  0.66104681  0.80186335  1
  C  C2519  1  0.22026839  0.66915738  0.79259873  1
  O  O2520  1  0.20000521  0.69077478  0.82697692  1
  C  C2521  1  0.21956415  0.68835040  0.81591448  1
  C  C2522  1  0.24087524  0.66474618  0.77853760  1
  O  O2523  1  0.23881663  0.69929809  0.82234670  1
  C  C2524  1  0.23947903  0.64998966  0.75625969  1
  O  O2525  1  0.16255204  0.71756442  0.87352439  1
  C  C2526  1  0.21755905  0.63594540  0.75241121  1
  C  C2527  1  0.13164455  0.71662503  0.75130021  1
  H  H2528  1  0.25710239  0.67561191  0.78190666  1
  H  H2529  1  0.28828084  0.65503897  0.76645073  1
  O  O2530  1  0.33176016  0.66508032  0.76241826  1
  O  O2531  1  0.43831940  0.62947477  0.78741439  1
  O  O2532  1  0.40435442  0.64314759  0.80416855  1
  C  C2533  1  0.42749081  0.64394714  0.80159728  1
  C  C2534  1  0.47154157  0.69012380  0.84903363  1
  C  C2535  1  0.47021147  0.66000436  0.81399787  1
  C  C2536  1  0.43213190  0.67562571  0.83360183  1
  C  C2537  1  0.44469486  0.66052107  0.81636650  1
  H  H2538  1  0.41154232  0.67344510  0.83239808  1
  C  C2539  1  0.44557090  0.69040901  0.85023123  1
  C  C2540  1  0.48391626  0.67528714  0.83079735  1
  H  H2541  1  0.48011284  0.64780840  0.79986051  1
  H  H2542  1  0.48070640  0.70066127  0.86334133  1
  C  C2543  1  0.43321458  0.70452576  0.87055802  1
  C  C2544  1  0.02517782  0.75655295  0.81265306  1
  C  C2545  1  0.06505218  0.83895703  0.81666740  1
  C  C2546  1  0.07650996  0.82323906  0.83386413  1
  H  H2547  1  0.09558223  0.82249283  0.83092296  1
  C  C2548  1  0.06435065  0.81092827  0.85390946  1
  C  C2549  1  0.03908716  0.84080924  0.81958636  1
  C  C2550  1  0.02524379  0.82915865  0.83828301  1
  H  H2551  1  0.03096856  0.85142167  0.80398392  1
  C  C2552  1  0.03895040  0.81465056  0.85565610  1
  C  C2553  1  0.07894922  0.85314518  0.79674229  1
  O  O2554  1  0.10166796  0.85143502  0.79560184  1
  C  C2555  1  0.02945506  0.78953853  0.77974627  1
  C  C2556  1  0.03412910  0.76533853  0.78554472  1
  H  H2557  1  0.01911608  0.80124151  0.79279013  1
  C  C2558  1  0.07871963  0.79315578  0.86982173  1
  H  H2559  1  0.02866779  0.80528017  0.87192909  1
  O  O2560  1  0.01855594  0.83521350  0.76319921  1
  H  H2561  1  0.12137781  0.78846927  0.76094031  1
  O  O2562  1  0.10175785  0.79412332  0.87153229  1
  O  O2563  1  0.12362259  0.75814628  0.83590342  1
  Zn  Zn2564  1  0.12384325  0.87432184  0.76394250  1
  O  O2565  1  0.01727227  0.77370220  0.82596289  1
  C  C2566  1  0.03962120  0.79797326  0.75705597  1
  C  C2567  1  0.03658256  0.82544770  0.75148599  1
  O  O2568  1  0.06638632  0.86616413  0.78220955  1
  H  H2569  1  0.12744354  0.76719517  0.78719097  1
  H  H2570  1  0.24075549  0.86910081  0.78555785  1
  Zn  Zn2571  1  0.23907170  0.86857588  0.86907516  1
  H  H2572  1  0.21232215  0.87263216  0.76229389  1
  O  O2573  1  0.16323793  0.87147291  0.75576443  1
  O  O2574  1  0.25128944  0.86806106  0.82888123  1
  C  C2575  1  0.30405418  0.86324379  0.78588854  1
  C  C2576  1  0.30940485  0.86478017  0.76007333  1
  O  O2577  1  0.35476910  0.76993163  0.86780262  1
  O  O2578  1  0.35232743  0.86227092  0.76980906  1
  C  C2579  1  0.27887965  0.86370903  0.79286746  1
  H  H2580  1  0.31836420  0.86079253  0.80009243  1
  C  C2581  1  0.27249522  0.86365934  0.82066234  1
  C  C2582  1  0.25864148  0.86685843  0.77748292  1
  O  O2583  1  0.29161976  0.86110516  0.83361198  1
  C  C2584  1  0.33609476  0.86402216  0.75287783  1
  C  C2585  1  0.26325605  0.86770537  0.75151030  1
  H  H2586  1  0.48623183  0.84330709  0.79888327  1
  C  C2587  1  0.47711513  0.82986375  0.81194620  1
  C  C2588  1  0.47638921  0.80339418  0.84818098  1
  C  C2589  1  0.45112295  0.80538791  0.84751385  1
  C  C2590  1  0.43713591  0.81879254  0.82993827  1
  H  H2591  1  0.41627206  0.81976572  0.83130342  1
  C  C2592  1  0.45066084  0.83141728  0.81242525  1
  C  C2593  1  0.49075888  0.81590964  0.82935761  1
  C  C2594  1  0.43812332  0.84931618  0.79459424  1
  O  O2595  1  0.41582984  0.85547447  0.79729716  1
  H  H2596  1  0.48426572  0.79136015  0.86299210  1
  O  O2597  1  0.45119373  0.85860189  0.77772025  1
  C  C2598  1  0.43588545  0.79289446  0.86809336  1
  O  O2599  1  0.41279383  0.79548070  0.86738125  1
  O  O2600  1  0.06692761  0.94060974  0.75116517  1
  O  O2601  1  0.04273058  0.90790916  0.75141833  1
  O  O2602  1  0.12713169  0.93707984  0.77440641  1
  O  O2603  1  0.13364589  0.90154735  0.79344905  1
  C  C2604  1  0.13823906  0.92348781  0.78977831  1
  H  H2605  1  0.15119143  0.96742308  0.78489926  1
  O  O2606  1  0.21705062  0.89994891  0.84644120  1
  H  H2607  1  0.21600513  0.96879545  0.83405316  1
  C  C2608  1  0.18265011  0.97412214  0.81126686  1
  C  C2609  1  0.15953950  0.93487802  0.80440719  1
  C  C2610  1  0.17696233  0.92123575  0.81735546  1
  H  H2611  1  0.17647095  0.90105708  0.81852372  1
  C  C2612  1  0.19675681  0.93500482  0.82668222  1
  C  C2613  1  0.20003178  0.95999498  0.82523919  1
  C  C2614  1  0.16382693  0.96043252  0.80053021  1
  C  C2615  1  0.21838282  0.92154522  0.84013269  1
  O  O2616  1  0.23787834  0.93369778  0.84178331  1
  Zn  Zn2617  1  0.29917211  0.87656614  0.87207699  1
  H  H2618  1  0.32007752  0.98148663  0.85633174  1
  O  O2619  1  0.32525371  0.90845409  0.86144961  1
  C  C2620  1  0.32058366  0.93051081  0.85916212  1
  C  C2621  1  0.34380014  0.98603714  0.82304984  1
  C  C2622  1  0.33572720  0.94689405  0.84275956  1
  C  C2623  1  0.33130308  0.97201027  0.84066105  1
  C  C2624  1  0.35299978  0.93535811  0.82685629  1
  H  H2625  1  0.35807448  0.91588852  0.82827197  1
  C  C2626  1  0.36311998  0.94879960  0.80747513  1
  C  C2627  1  0.35813841  0.97365693  0.80456332  1
  H  H2628  1  0.36891537  0.98533366  0.79144903  1
  O  O2629  1  0.30220541  0.93994355  0.86963619  1
  Zn  Zn2630  1  0.26386902  0.92417015  0.87077523  1
  Zn  Zn2631  1  0.39115384  0.87775587  0.77541572  1
  C  C2632  1  0.37885140  0.93375911  0.78858114  1
  O  O2633  1  0.38483436  0.91251125  0.79502353  1
  O  O2634  1  0.38616698  0.94281920  0.76927913  1
  Zn  Zn2635  1  0.22281282  0.61338230  0.87807695  1
  O  O2636  1  0.22209545  0.60480667  0.95025601  1
  O  O2637  1  0.20198131  0.61009388  0.91558906  1
  O  O2638  1  0.24703979  0.53683432  0.91462725  1
  C  C2639  1  0.20582660  0.61474634  0.93801287  1
  C  C2640  1  0.25553731  0.51529242  0.95266854  1
  Zn  Zn2641  1  0.25118313  0.56428490  0.88538389  1
  O  O2642  1  0.25390041  0.59975445  0.89582817  1
  C  C2643  1  0.25539615  0.53782172  0.93643549  1
  O  O2644  1  0.26162255  0.55785319  0.94586106  1
  C  C2645  1  0.26199451  0.51571647  0.97767227  1
  Zn  Zn2646  1  0.25917611  0.59596642  0.93170049  1
  O  O2647  1  0.28708001  0.55211508  0.87636880  1
  Zn  Zn2648  1  0.28264026  0.62218585  0.88570235  1
  H  H2649  1  0.26809099  0.53279081  0.98723362  1
  O  O2650  1  0.28879098  0.61501296  0.94843451  1
  O  O2651  1  0.08936176  0.69173626  0.87786337  1
  O  O2652  1  0.05548483  0.71310481  0.88364870  1
  O  O2653  1  0.11297929  0.74405357  0.89756055  1
  Zn  Zn2654  1  0.07446736  0.74396831  0.89518616  1
  C  C2655  1  0.05569424  0.74201393  0.97601111  1
  C  C2656  1  0.03003815  0.74382386  0.97722592  1
  O  O2657  1  0.05626890  0.74470130  0.93176771  1
  C  C2658  1  0.06902997  0.74180508  0.95121635  1
  O  O2659  1  0.09177277  0.73798193  0.95243830  1
  H  H2660  1  0.01933161  0.74603423  0.95973849  1
  C  C2661  1  0.06998446  0.73948467  0.99727644  1
  H  H2662  1  0.09060182  0.73767850  0.99644916  1
  C  C2663  1  0.17720331  0.73448371  0.87958747  1
  C  C2664  1  0.22284182  0.74350009  0.88233486  1
  C  C2665  1  0.20385235  0.72616517  0.88216953  1
  Zn  Zn2666  1  0.12528799  0.71311615  0.88338690  1
  Zn  Zn2667  1  0.12649147  0.74264227  0.93234893  1
  C  C2668  1  0.24805726  0.73660698  0.88338713  1
  H  H2669  1  0.20817068  0.62695239  0.98595901  1
  C  C2670  1  0.20879047  0.70113475  0.88289074  1
  C  C2671  1  0.23381171  0.69425512  0.88411264  1
  H  H2672  1  0.19459673  0.68706737  0.88077314  1
  O  O2673  1  0.14909260  0.71367659  0.94219812  1
  O  O2674  1  0.22046909  0.65312960  0.88564149  1
  C  C2675  1  0.23876120  0.66695238  0.88536880  1
  O  O2676  1  0.14238602  0.68547686  0.91397297  1
  C  C2677  1  0.15147140  0.69187008  0.93358948  1
  C  C2678  1  0.19052961  0.63587205  0.94993015  1
  H  H2679  1  0.17040819  0.64703609  0.91696144  1
  C  C2680  1  0.17512761  0.65140628  0.93683005  1
  C  C2681  1  0.16532257  0.67176628  0.94939895  1
  C  C2682  1  0.19405156  0.63870539  0.97540550  1
  C  C2683  1  0.18223494  0.65818935  0.98827137  1
  C  C2684  1  0.16839440  0.67617138  0.97398120  1
  H  H2685  1  0.15837011  0.69216152  0.98341981  1
  O  O2686  1  0.34420699  0.73349179  0.88124600  1
  H  H2687  1  0.29692961  0.72554455  0.88681425  1
  C  C2688  1  0.29248111  0.74584682  0.88384111  1
  O  O2689  1  0.30828471  0.63050503  0.91665021  1
  C  C2690  1  0.25286837  0.71129890  0.88396099  1
  H  H2691  1  0.27204547  0.70462522  0.88450157  1
  C  C2692  1  0.30408059  0.62993461  0.93938818  1
  H  H2693  1  0.30204293  0.63256433  0.99108761  1
  O  O2694  1  0.26069180  0.66055804  0.88797111  1
  C  C2695  1  0.31325962  0.64818433  0.98189773  1
  C  C2696  1  0.31688510  0.64751962  0.95651234  1
  C  C2697  1  0.34181960  0.68401814  0.96027934  1
  C  C2698  1  0.33129139  0.66534595  0.94488685  1
  H  H2699  1  0.33564901  0.66651995  0.92478983  1
  C  C2700  1  0.33942566  0.68376412  0.98515713  1
  C  C2701  1  0.32627558  0.66394305  0.99829166  1
  H  H2702  1  0.34746321  0.69914512  0.99565811  1
  C  C2703  1  0.35650943  0.70368941  0.94636081  1
  O  O2704  1  0.36330229  0.70120427  0.92478517  1
  O  O2705  1  0.36209329  0.72199853  0.95974061  1
  O  O2706  1  0.41072092  0.69959773  0.87632699  1
  Zn  Zn2707  1  0.38163804  0.72179777  0.89075649  1
  O  O2708  1  0.44576280  0.72066816  0.88182034  1
  O  O2709  1  0.41555881  0.73121376  0.95991912  1
  C  C2710  1  0.43827922  0.73621163  0.95816333  1
  C  C2711  1  0.45210572  0.73543759  0.98206652  1
  C  C2712  1  0.47774083  0.74153964  0.98108609  1
  O  O2713  1  0.44792271  0.74542290  0.93965488  1
  H  H2714  1  0.48790701  0.74782577  0.96433961  1
  Zn  Zn2715  1  0.43069217  0.74992009  0.90426310  1
  O  O2716  1  0.39524177  0.74972654  0.90739762  1
  O  O2717  1  0.06650574  0.78217375  0.88633778  1
  O  O2718  1  0.17200083  0.75615558  0.87817649  1
  H  H2719  1  0.21665348  0.76312852  0.88168920  1
  H  H2720  1  0.24166257  0.78771442  0.88152739  1
  Zn  Zn2721  1  0.13211872  0.76726656  0.87635554  1
  O  O2722  1  0.14158622  0.77638491  0.93710672  1
  O  O2723  1  0.20758511  0.86493397  0.89922841  1
  O  O2724  1  0.14705093  0.79549817  0.90156009  1
  C  C2725  1  0.21030578  0.86528035  0.92242500  1
  C  C2726  1  0.15064481  0.79361004  0.92422458  1
  C  C2727  1  0.16762575  0.81171646  0.93741677  1
  H  H2728  1  0.17792973  0.82983026  0.90099327  1
  C  C2729  1  0.17975098  0.82941864  0.92287557  1
  C  C2730  1  0.19457269  0.84552926  0.93587338  1
  C  C2731  1  0.16827862  0.81016429  0.96346104  1
  C  C2732  1  0.19478719  0.84638219  0.96169699  1
  H  H2733  1  0.20574396  0.86201314  0.96989266  1
  C  C2734  1  0.18286961  0.82806698  0.97656728  1
  H  H2735  1  0.15937048  0.79445906  0.97333830  1
  O  O2736  1  0.25399318  0.83123671  0.88121533  1
  C  C2737  1  0.33897088  0.75499329  0.87536192  1
  C  C2738  1  0.31164818  0.76265980  0.87949507  1
  H  H2739  1  0.32245462  0.80073449  0.87505861  1
  C  C2740  1  0.30636605  0.78721755  0.87841183  1
  C  C2741  1  0.28180952  0.79678522  0.88107199  1
  C  C2742  1  0.27611735  0.82380149  0.88099332  1
  C  C2743  1  0.26779015  0.75599004  0.88355771  1
  C  C2744  1  0.26160352  0.78127927  0.88194971  1
  H  H2745  1  0.31304646  0.87342683  0.98648212  1
  O  O2746  1  0.29497531  0.83771053  0.87929171  1
  C  C2747  1  0.33884679  0.84293485  0.99018268  1
  C  C2748  1  0.35281691  0.82528038  0.95224420  1
  H  H2749  1  0.36596363  0.81274583  0.98850367  1
  C  C2750  1  0.33887983  0.84178116  0.93764965  1
  C  C2751  1  0.32462743  0.86005569  0.97661742  1
  C  C2752  1  0.35467654  0.82615618  0.97805056  1
  H  H2753  1  0.34116963  0.84402429  0.91751754  1
  C  C2754  1  0.32542539  0.85942057  0.95068005  1
  C  C2755  1  0.36665174  0.80631011  0.93778436  1
  O  O2756  1  0.36767730  0.80866813  0.91455839  1
  O  O2757  1  0.37833717  0.78895294  0.94969227  1
  Zn  Zn2758  1  0.38549874  0.75056972  0.94242915  1
  O  O2759  1  0.44660956  0.78225089  0.88534926  1
  Zn  Zn2760  1  0.38476953  0.78036198  0.89336116  1
  H  H2761  1  0.23907642  0.99587102  0.90425245  1
  O  O2762  1  0.24789458  0.95173996  0.89907438  1
  C  C2763  1  0.24902200  0.95075956  0.92195020  1
  O  O2764  1  0.22538434  0.87846515  0.93394849  1
  C  C2765  1  0.24548786  0.99634022  0.92399985  1
  C  C2766  1  0.24934171  0.97442178  0.93713219  1
  C  C2767  1  0.31277813  0.87702463  0.93238037  1
  O  O2768  1  0.29351207  0.88716997  0.94069860  1
  O  O2769  1  0.26568690  0.89124018  0.88232527  1
  Zn  Zn2770  1  0.26018110  0.89390633  0.91686227  1
  C  C2771  1  0.25488421  0.97380813  0.96205372  1
  C  C2772  1  0.25511935  0.99627012  0.97602249  1
  O  O2773  1  0.32084868  0.88143235  0.91125905  1
  H  H2774  1  0.26076793  0.95600098  0.96936173  1
  O  O2775  1  0.25429603  0.93111308  0.93296331  1
  O  O2776  1  0.71906966  0.11999207  0.05582819  1
  H  H2777  1  0.76249764  0.04982402  0.01550517  1
  C  C2778  1  0.75709141  0.01069457  0.01076638  1
  C  C2779  1  0.76148753  0.03236839  0.02483926  1
  O  O2780  1  0.75471199  0.11269238  0.10628866  1
  Zn  Zn2781  1  0.75453991  0.11103557  0.06925872  1
  O  O2782  1  0.76819924  0.07664093  0.05484647  1
  C  C2783  1  0.76716895  0.05590477  0.06486385  1
  C  C2784  1  0.76281514  0.03271605  0.05051118  1
  C  C2785  1  0.76314569  0.01047346  0.06382555  1
  H  H2786  1  0.76686165  0.01253638  0.08412576  1
  O  O2787  1  0.76666687  0.05438887  0.08810858  1
  Zn  Zn2788  1  0.75642734  0.07852258  0.12180447  1
  O  O2789  1  0.55221154  0.21821220  0.11716806  1
  O  O2790  1  0.58524169  0.19529256  0.12093396  1
  Zn  Zn2791  1  0.61574844  0.22034805  0.12193452  1
  O  O2792  1  0.69839423  0.12754585  0.08937154  1
  O  O2793  1  0.64126755  0.22486447  0.06276555  1
  C  C2794  1  0.70297130  0.13275013  0.06756537  1
  H  H2795  1  0.70448433  0.14370561  0.01673421  1
  O  O2796  1  0.63867304  0.19931076  0.09347341  1
  C  C2797  1  0.64602008  0.20479953  0.07239843  1
  H  H2798  1  0.65216648  0.20443241  0.02289813  1
  H  H2799  1  0.66984768  0.16386049  0.08930984  1
  C  C2800  1  0.68875281  0.15264067  0.05415026  1
  C  C2801  1  0.67202022  0.16651984  0.06824817  1
  C  C2802  1  0.69195564  0.15522268  0.02880626  1
  C  C2803  1  0.65986857  0.18593865  0.05638822  1
  C  C2804  1  0.66236110  0.18995856  0.03127773  1
  C  C2805  1  0.67853860  0.17436484  0.01781154  1
  C  C2806  1  0.73089736  0.18349495  0.11526588  1
  C  C2807  1  0.74209368  0.22751670  0.11479433  1
  O  O2808  1  0.71452622  0.16748349  0.12064059  1
  C  C2809  1  0.72452229  0.20929450  0.11901279  1
  Zn  Zn2810  1  0.72287823  0.12529190  0.12095391  1
  O  O2811  1  0.78630933  0.13159972  0.05208398  1
  O  O2812  1  0.75277078  0.17646127  0.11026088  1
  Zn  Zn2813  1  0.77612679  0.14299415  0.11272506  1
  H  H2814  1  0.80532866  0.14576764  0.01241400  1
  O  O2815  1  0.80380650  0.14634103  0.08546552  1
  C  C2816  1  0.80300538  0.14384254  0.06185746  1
  C  C2817  1  0.81902588  0.16057663  0.04651664  1
  C  C2818  1  0.83555188  0.17643438  0.05862958  1
  H  H2819  1  0.83623594  0.17758408  0.07956376  1
  C  C2820  1  0.84780318  0.19350353  0.04398322  1
  C  C2821  1  0.81791152  0.15920586  0.02059475  1
  C  C2822  1  0.84736627  0.19303821  0.01809267  1
  C  C2823  1  0.86460528  0.21128678  0.05788639  1
  O  O2824  1  0.86305183  0.21255044  0.08087595  1
  H  H2825  1  0.85923840  0.20455445  0.00526057  1
  C  C2826  1  0.83254366  0.17475264  0.00592832  1
  H  H2827  1  0.75998003  0.22174468  0.10640617  1
  H  H2828  1  0.78578108  0.24025995  0.11943155  1
  O  O2829  1  0.83563764  0.24939223  0.11431284  1
  O  O2830  1  0.87988982  0.22394193  0.04558521  1
  Zn  Zn2831  1  0.87894280  0.23791176  0.11394887  1
  O  O2832  1  0.94256079  0.22159609  0.10994456  1
  O  O2833  1  0.90596638  0.20866672  0.12181329  1
  C  C2834  1  0.92896472  0.20761128  0.12260226  1
  H  H2835  1  0.97711877  0.19655128  0.12221811  1
  C  C2836  1  0.51216019  0.25662547  0.00151023  1
  Zn  Zn2837  1  0.61866570  0.25506035  0.07434917  1
  O  O2838  1  0.60626906  0.25303202  0.10793302  1
  Zn  Zn2839  1  0.56983381  0.25002001  0.10530271  1
  H  H2840  1  0.51697201  0.25525834  0.04023023  1
  C  C2841  1  0.52667395  0.25659581  0.02331202  1
  O  O2842  1  0.55449320  0.25174818  0.06689879  1
  C  C2843  1  0.56705035  0.25527268  0.04730948  1
  O  O2844  1  0.58989461  0.25220224  0.04707460  1
  C  C2845  1  0.55305044  0.25688412  0.02341397  1
  C  C2846  1  0.56713424  0.25755440  0.00170165  1
  H  H2847  1  0.58738123  0.25836317  0.00066577  1
  O  O2848  1  0.55448633  0.28589673  0.11740014  1
  C  C2849  1  0.73716892  0.25248262  0.12073537  1
  O  O2850  1  0.63210825  0.29243972  0.06332477  1
  O  O2851  1  0.64295769  0.30711392  0.10031614  1
  C  C2852  1  0.64497876  0.30549816  0.07757934  1
  C  C2853  1  0.66175703  0.32270824  0.06399393  1
  C  C2854  1  0.66212434  0.31946908  0.03799517  1
  C  C2855  1  0.67493727  0.33897482  0.07865724  1
  H  H2856  1  0.67308192  0.34071609  0.09899077  1
  C  C2857  1  0.69176802  0.35332041  0.06456340  1
  C  C2858  1  0.69413985  0.35093682  0.03873173  1
  H  H2859  1  0.65105731  0.30567375  0.02812967  1
  C  C2860  1  0.67862999  0.33499293  0.02513419  1
  H  H2861  1  0.70715944  0.36310369  0.02922188  1
  O  O2862  1  0.74841430  0.34624740  0.11937383  1
  H  H2863  1  0.73369093  0.30218376  0.11708686  1
  C  C2864  1  0.70850103  0.37058753  0.07815370  1
  O  O2865  1  0.70581368  0.37370161  0.10097861  1
  C  C2866  1  0.75267270  0.29504272  0.11706437  1
  C  C2867  1  0.83379927  0.34898634  0.05846591  1
  C  C2868  1  0.84353016  0.32915448  0.04535956  1
  C  C2869  1  0.83804028  0.32656097  0.01973030  1
  H  H2870  1  0.83737173  0.35033880  0.07882201  1
  C  C2871  1  0.81610431  0.36484389  0.02060082  1
  C  C2872  1  0.85794053  0.31024781  0.06019546  1
  H  H2873  1  0.84501634  0.30889377  0.01121399  1
  C  C2874  1  0.82055901  0.36740976  0.04602544  1
  H  H2875  1  0.81344875  0.31515228  0.11379452  1
  C  C2876  1  0.79748610  0.30276662  0.11514420  1
  C  C2877  1  0.82511280  0.34460997  0.00620660  1
  C  C2878  1  0.77288894  0.31117723  0.11614577  1
  C  C2879  1  0.76923796  0.33863047  0.11431390  1
  O  O2880  1  0.78823002  0.35169611  0.10980974  1
  O  O2881  1  0.86316976  0.29078768  0.05011281  1
  O  O2882  1  0.86237304  0.31548737  0.08266456  1
  C  C2883  1  0.78207217  0.25950342  0.11903491  1
  C  C2884  1  0.80147219  0.27745664  0.11879724  1
  C  C2885  1  0.82863142  0.27108649  0.11862464  1
  C  C2886  1  0.75829408  0.26969318  0.11919805  1
  O  O2887  1  0.84362183  0.28827950  0.12416079  1
  H  H2888  1  0.98546722  0.25915495  0.03038582  1
  C  C2889  1  0.97547219  0.26202593  0.01195207  1
  C  C2890  1  0.93878675  0.27132873  0.03738098  1
  O  O2891  1  0.95005277  0.26082443  0.05516859  1
  O  O2892  1  0.91652010  0.27872255  0.03908313  1
  C  C2893  1  0.95020377  0.26904196  0.01238148  1
  Zn  Zn2894  1  0.93189879  0.25807186  0.09139201  1
  Zn  Zn2895  1  0.88620576  0.26034635  0.05830990  1
  Zn  Zn2896  1  0.88124152  0.29234388  0.10680176  1
  O  O2897  1  0.89380152  0.26222311  0.09381008  1
  O  O2898  1  0.94664856  0.29394412  0.10639516  1
  O  O2899  1  0.91490327  0.31924359  0.10964453  1
  C  C2900  1  0.93527590  0.31200490  0.11615037  1
  O  O2901  1  0.72256692  0.38472323  0.06594883  1
  O  O2902  1  0.74487006  0.46589950  0.09276211  1
  C  C2903  1  0.74212050  0.46340104  0.06974654  1
  C  C2904  1  0.74472612  0.48616116  0.05402186  1
  C  C2905  1  0.74935651  0.48617447  0.02876139  1
  O  O2906  1  0.74328039  0.44323602  0.05830541  1
  H  H2907  1  0.75320139  0.46894540  0.01841446  1
  H  H2908  1  0.80440969  0.37884853  0.01065276  1
  Zn  Zn2909  1  0.75663045  0.40733331  0.07293552  1
  O  O2910  1  0.81490325  0.39159078  0.08086519  1
  Zn  Zn2911  1  0.75896904  0.43994226  0.12039470  1
  C  C2912  1  0.80697821  0.38899432  0.05958514  1
  O  O2913  1  0.75669654  0.40586154  0.11176372  1
  O  O2914  1  0.79034267  0.40155543  0.05085632  1
  Zn  Zn2915  1  0.79352403  0.39223155  0.11784081  1
  O  O2916  1  0.62037911  0.06107675  0.21937441  1
  O  O2917  1  0.56467218  0.06422585  0.24982213  1
  O  O2918  1  0.59894711  0.11585379  0.24479904  1
  H  H2919  1  0.54129393  0.02446209  0.24494199  1
  Zn  Zn2920  1  0.56331039  0.12215817  0.24401579  1
  Zn  Zn2921  1  0.60176939  0.08084969  0.24982862  1
  C  C2922  1  0.52331405  0.03227090  0.24752490  1
  C  C2923  1  0.63287081  0.07185678  0.20338902  1
  O  O2924  1  0.63243369  0.09491506  0.19979526  1
  O  O2925  1  0.72105277  0.06563446  0.13214568  1
  H  H2926  1  0.63884077  0.02284443  0.19709919  1
  H  H2927  1  0.70274525  0.02655341  0.14688800  1
  C  C2928  1  0.70386752  0.07673390  0.14344060  1
  O  O2929  1  0.70025190  0.09920399  0.14119352  1
  C  C2930  1  0.65163593  0.03348413  0.18605148  1
  C  C2931  1  0.65154739  0.05918333  0.18650220  1
  C  C2932  1  0.68546685  0.06173288  0.15742266  1
  C  C2933  1  0.66778693  0.07370251  0.17240876  1
  H  H2934  1  0.66479317  0.09391056  0.17107881  1
  C  C2935  1  0.68711009  0.03586277  0.15633664  1
  C  C2936  1  0.67009054  0.02302910  0.17067609  1
  C  C2937  1  0.70887346  0.12209084  0.24577409  1
  H  H2938  1  0.70282914  0.12442012  0.22615473  1
  O  O2939  1  0.80689000  0.08500297  0.13277040  1
  O  O2940  1  0.78024907  0.05807557  0.14656329  1
  H  H2941  1  0.80649411  0.01897425  0.15193061  1
  C  C2942  1  0.80214256  0.06681149  0.14499400  1
  C  C2943  1  0.84041175  0.01635727  0.17491473  1
  C  C2944  1  0.82174925  0.02878646  0.16093041  1
  C  C2945  1  0.82427078  0.05404552  0.15799807  1
  C  C2946  1  0.84444657  0.06790284  0.16646644  1
  H  H2947  1  0.84503800  0.08693679  0.16181761  1
  C  C2948  1  0.85971792  0.03023337  0.18569182  1
  C  C2949  1  0.86185854  0.05547464  0.18080269  1
  C  C2950  1  0.82636653  0.11409001  0.23452970  1
  O  O2951  1  0.84230116  0.11921108  0.21837010  1
  C  C2952  1  0.79952978  0.11796192  0.22679454  1
  C  C2953  1  0.75590995  0.11808687  0.23540926  1
  C  C2954  1  0.77965667  0.11331760  0.24298341  1
  H  H2955  1  0.87359921  0.02183136  0.19629875  1
  C  C2956  1  0.88208745  0.06956132  0.19328854  1
  O  O2957  1  0.88388798  0.09234281  0.19040812  1
  O  O2958  1  0.89614865  0.05841239  0.20812597  1
  Zn  Zn2959  1  0.93078308  0.10940269  0.24048924  1
  O  O2960  1  0.95159739  0.07761767  0.23158364  1
  O  O2961  1  0.89295382  0.10422813  0.24638833  1
  Zn  Zn2962  1  0.88251629  0.12414933  0.21622949  1
  Zn  Zn2963  1  0.89468529  0.06765613  0.24684940  1
  O  O2964  1  0.93163693  0.04709002  0.24825696  1
  C  C2965  1  0.95091329  0.05582930  0.23879334  1
  C  C2966  1  0.97466486  0.04151642  0.23953462  1
  C  C2967  1  0.99631983  0.05413755  0.23317434  1
  H  H2968  1  0.99339394  0.07307303  0.22882381  1
  C  C2969  1  0.99857081  0.00401672  0.24567381  1
  C  C2970  1  0.97618283  0.01685445  0.24629807  1
  C  C2971  1  0.56266842  0.20024459  0.12678148  1
  O  O2972  1  0.54968205  0.12506492  0.20745344  1
  Zn  Zn2973  1  0.61840068  0.12690671  0.21592926  1
  H  H2974  1  0.51287556  0.20130075  0.13417606  1
  O  O2975  1  0.58552506  0.13410059  0.18901672  1
  C  C2976  1  0.56220792  0.13723256  0.19128293  1
  H  H2977  1  0.51164774  0.14590330  0.18965827  1
  C  C2978  1  0.50868606  0.17283326  0.16225753  1
  H  H2979  1  0.58301295  0.16543527  0.15548376  1
  C  C2980  1  0.54868904  0.15465901  0.17538687  1
  C  C2981  1  0.56270437  0.16837962  0.15770005  1
  C  C2982  1  0.52278277  0.15686542  0.17719039  1
  C  C2983  1  0.54858278  0.18479759  0.14456583  1
  C  C2984  1  0.52198900  0.18761149  0.14663601  1
  O  O2985  1  0.59989893  0.23161831  0.16052997  1
  C  C2986  1  0.61091190  0.24292454  0.20050610  1
  H  H2987  1  0.60911945  0.20206498  0.19272472  1
  C  C2988  1  0.61165213  0.21775092  0.20637931  1
  C  C2989  1  0.61571523  0.21111200  0.23089045  1
  C  C2990  1  0.61488595  0.18363646  0.23907655  1
  O  O2991  1  0.61514866  0.16758978  0.22250181  1
  C  C2992  1  0.60757811  0.24898432  0.17293160  1
  C  C2993  1  0.70029862  0.21507064  0.12513381  1
  C  C2994  1  0.69412493  0.24014541  0.12777769  1
  H  H2995  1  0.68588395  0.20193621  0.12769537  1
  H  H2996  1  0.73141046  0.12772647  0.20386934  1
  O  O2997  1  0.66017180  0.13110592  0.23499728  1
  O  O2998  1  0.74191139  0.13110488  0.15944468  1
  O  O2999  1  0.65199609  0.22898323  0.13656090  1
  C  C3000  1  0.66760716  0.24633331  0.13408149  1
  C  C3001  1  0.75027060  0.12506947  0.20984699  1
  C  C3002  1  0.77047652  0.12711248  0.19445253  1
  C  C3003  1  0.79497201  0.12581961  0.20242607  1
  H  H3004  1  0.80968684  0.13122115  0.18911510  1
  C  C3005  1  0.76411291  0.13182443  0.16701780  1
  O  O3006  1  0.78201699  0.13710808  0.15329669  1
  O  O3007  1  0.87348241  0.16202495  0.23744827  1
  H  H3008  1  0.87206816  0.20699828  0.22524875  1
  C  C3009  1  0.87420331  0.21329611  0.24445508  1
  H  H3010  1  0.88157479  0.23336682  0.19948205  1
  O  O3011  1  0.88552857  0.24754108  0.15308963  1
  O  O3012  1  0.94172287  0.13979401  0.21400977  1
  O  O3013  1  0.90741163  0.14643150  0.19285253  1
  C  C3014  1  0.96903986  0.18822062  0.13940847  1
  C  C3015  1  0.93003125  0.15009105  0.19728983  1
  H  H3016  1  0.97950731  0.15287299  0.19170306  1
  C  C3017  1  0.94282093  0.18986735  0.13987031  1
  C  C3018  1  0.94325709  0.16416596  0.17688199  1
  C  C3019  1  0.93030021  0.17807210  0.15896745  1
  H  H3020  1  0.90983046  0.17954099  0.16012454  1
  C  C3021  1  0.96943318  0.16388899  0.17766223  1
  C  C3022  1  0.98200737  0.17457432  0.15738808  1
  C  C3023  1  0.61962751  0.25261310  0.24367140  1
  O  O3024  1  0.58739779  0.30535464  0.12836962  1
  C  C3025  1  0.56572653  0.29893226  0.13299030  1
  H  H3026  1  0.51647168  0.33445623  0.21571017  1
  C  C3027  1  0.51329705  0.31507462  0.17927929  1
  H  H3028  1  0.51790150  0.29919628  0.14147481  1
  C  C3029  1  0.52587033  0.32654166  0.19919232  1
  C  C3030  1  0.52696729  0.30702520  0.15832859  1
  C  C3031  1  0.55306655  0.30901536  0.15646158  1
  H  H3032  1  0.58522986  0.32350441  0.17671309  1
  C  C3033  1  0.55153920  0.32904375  0.19660695  1
  C  C3034  1  0.56533789  0.32021622  0.17630456  1
  C  C3035  1  0.56680341  0.34378482  0.21653955  1
  O  O3036  1  0.61009588  0.27068089  0.16513472  1
  O  O3037  1  0.58841584  0.34871472  0.21316994  1
  O  O3038  1  0.55490664  0.34989954  0.23642795  1
  C  C3039  1  0.61470943  0.26016026  0.21868904  1
  H  H3040  1  0.61279529  0.27974572  0.21324720  1
  Zn  Zn3041  1  0.62372231  0.27936140  0.12743464  1
  C  C3042  1  0.71208138  0.25930221  0.12683267  1
  H  H3043  1  0.70693284  0.27851845  0.12951168  1
  H  H3044  1  0.63367799  0.30160531  0.23920042  1
  O  O3045  1  0.66008403  0.26845552  0.13562203  1
  O  O3046  1  0.64537333  0.34553451  0.24720718  1
  O  O3047  1  0.74992739  0.37463988  0.16418679  1
  H  H3048  1  0.98318495  0.30515577  0.12519446  1
  C  C3049  1  0.88994366  0.26846593  0.16320090  1
  O  O3050  1  0.89383169  0.28638221  0.14969675  1
  H  H3051  1  0.89093178  0.31333239  0.18550989  1
  C  C3052  1  0.88042858  0.25284593  0.20557821  1
  C  C3053  1  0.87674584  0.25810887  0.23153574  1
  C  C3054  1  0.88038230  0.28282329  0.24013336  1
  O  O3055  1  0.88594087  0.34215894  0.21219818  1
  C  C3056  1  0.88642121  0.27275762  0.19074334  1
  C  C3057  1  0.88481328  0.32890006  0.23120711  1
  C  C3058  1  0.88625034  0.29779558  0.19774642  1
  C  C3059  1  0.88354184  0.30183809  0.22302864  1
  C  C3060  1  0.99054749  0.33007435  0.15655768  1
  C  C3061  1  0.95086809  0.32431565  0.13566450  1
  H  H3062  1  0.98929046  0.35725628  0.18708682  1
  C  C3063  1  0.97594223  0.31890090  0.13792309  1
  C  C3064  1  0.97883126  0.34693599  0.17220968  1
  H  H3065  1  0.91919090  0.34631745  0.14836536  1
  C  C3066  1  0.93897675  0.34210263  0.15006674  1
  C  C3067  1  0.95355045  0.35196993  0.16958890  1
  C  C3068  1  0.94062818  0.36965019  0.18635410  1
  O  O3069  1  0.91826396  0.37294400  0.18079791  1
  H  H3070  1  0.50365202  0.40900236  0.23692262  1
  O  O3071  1  0.54861573  0.40544996  0.24011327  1
  C  C3072  1  0.50186161  0.42949856  0.24089889  1
  O  O3073  1  0.56821982  0.43977809  0.24345296  1
  C  C3074  1  0.52377866  0.44248815  0.24430605  1
  C  C3075  1  0.50259817  0.47941035  0.24904990  1
  C  C3076  1  0.52551243  0.46731353  0.24870763  1
  C  C3077  1  0.54830404  0.42795919  0.24122327  1
  O  O3078  1  0.62630297  0.44527524  0.22641284  1
  Zn  Zn3079  1  0.73029770  0.38646295  0.13032855  1
  H  H3080  1  0.73858588  0.37845303  0.21407354  1
  Zn  Zn3081  1  0.63820608  0.38337987  0.23854709  1
  C  C3082  1  0.63782603  0.43269704  0.20990871  1
  H  H3083  1  0.71954932  0.39339386  0.24110798  1
  O  O3084  1  0.72680340  0.44662280  0.14352727  1
  O  O3085  1  0.63584491  0.40991553  0.20840249  1
  H  H3086  1  0.64372489  0.48270116  0.21124379  1
  H  H3087  1  0.70873478  0.48464686  0.16033385  1
  C  C3088  1  0.67490337  0.48716483  0.18520892  1
  C  C3089  1  0.68974103  0.45019934  0.16756221  1
  C  C3090  1  0.69236810  0.47525268  0.17012131  1
  O  O3091  1  0.70575213  0.41306893  0.15119852  1
  C  C3092  1  0.70851566  0.43528488  0.15135259  1
  H  H3093  1  0.67072206  0.41530070  0.17648611  1
  C  C3094  1  0.65563847  0.44849379  0.19539260  1
  C  C3095  1  0.67212241  0.43590629  0.17949156  1
  C  C3096  1  0.65655820  0.47402845  0.19778489  1
  O  O3097  1  0.78824172  0.38461359  0.15846793  1
  C  C3098  1  0.77075579  0.37985810  0.17214584  1
  O  O3099  1  0.79346809  0.45944372  0.12651862  1
  O  O3100  1  0.81562889  0.42551147  0.12968137  1
  C  C3101  1  0.75795558  0.37889281  0.22013909  1
  C  C3102  1  0.77552009  0.38032893  0.20065372  1
  H  H3103  1  0.81527550  0.38042761  0.19200956  1
  C  C3104  1  0.80090080  0.38092260  0.20650817  1
  C  C3105  1  0.76650985  0.37985002  0.24504117  1
  C  C3106  1  0.84436182  0.44608210  0.16601431  1
  C  C3107  1  0.85979043  0.45880592  0.18312010  1
  H  H3108  1  0.81288211  0.49561505  0.14285810  1
  C  C3109  1  0.81184798  0.44783590  0.13377649  1
  C  C3110  1  0.82875041  0.46130763  0.15260552  1
  C  C3111  1  0.85891644  0.48439069  0.18556159  1
  C  C3112  1  0.82619323  0.48635759  0.15549603  1
  O  O3113  1  0.84906007  0.38019042  0.21820250  1
  C  C3114  1  0.83661974  0.38006223  0.23822970  1
  C  C3115  1  0.80957771  0.38066331  0.23152519  1
  C  C3116  1  0.84300544  0.49993882  0.17156602  1
  H  H3117  1  0.84478762  0.42639776  0.16481769  1
  C  C3118  1  0.87477136  0.44253162  0.19868198  1
  H  H3119  1  0.87267158  0.49137614  0.19884038  1
  O  O3120  1  0.87421119  0.42055047  0.19393415  1
  Zn  Zn3121  1  0.89085290  0.38470783  0.20988187  1
  O  O3122  1  0.95200073  0.37812696  0.20534993  1
  Zn  Zn3123  1  0.94189346  0.37936747  0.24567992  1
  O  O3124  1  0.90499501  0.39092486  0.24308552  1
  O  O3125  1  0.88729073  0.45160145  0.21638938  1
  Zn  Zn3126  1  0.89807692  0.42653736  0.24695510  1
  O  O3127  1  0.54113015  0.09556716  0.26108670  1
  C  C3128  1  0.54392834  0.07303684  0.25484380  1
  C  C3129  1  0.52097871  0.05744892  0.25378547  1
  O  O3130  1  0.61054279  0.03149085  0.27426023  1
  O  O3131  1  0.61457785  0.06895901  0.28576957  1
  C  C3132  1  0.61791623  0.04629401  0.28938337  1
  H  H3133  1  0.64671460  0.06872640  0.32679147  1
  C  C3134  1  0.63392860  0.03413171  0.31040173  1
  C  C3135  1  0.63530166  0.00873634  0.31197567  1
  C  C3136  1  0.64746743  0.04834252  0.32676886  1
  C  C3137  1  0.66934371  0.01181559  0.34141096  1
  C  C3138  1  0.66637740  0.03700072  0.34120307  1
  C  C3139  1  0.68457516  0.05294212  0.35498413  1
  H  H3140  1  0.68426063  0.00381162  0.35329336  1
  C  C3141  1  0.72852064  0.11171687  0.32345366  1
  O  O3142  1  0.67938015  0.07478511  0.35887101  1
  O  O3143  1  0.71061102  0.11174959  0.33772027  1
  C  C3144  1  0.74083396  0.11490147  0.27803010  1
  C  C3145  1  0.72248183  0.11514744  0.29554609  1
  C  C3146  1  0.73355411  0.11737955  0.25253050  1
  C  C3147  1  0.69075228  0.12154887  0.26456021  1
  O  O3148  1  0.70494876  0.04295091  0.36164775  1
  Zn  Zn3149  1  0.73961548  0.05794834  0.37254963  1
  H  H3150  1  0.68341377  0.11991277  0.30421706  1
  C  C3151  1  0.69730006  0.11765405  0.28928116  1
  O  O3152  1  0.75082930  0.10875733  0.32864338  1
  C  C3153  1  0.82547156  0.00311332  0.31945037  1
  C  C3154  1  0.84277186  0.01681784  0.30554169  1
  C  C3155  1  0.84134310  0.04214129  0.30517906  1
  C  C3156  1  0.82549778  0.05655374  0.32028903  1
  H  H3157  1  0.82567270  0.07587052  0.32233926  1
  C  C3158  1  0.80857910  0.04256039  0.33396535  1
  C  C3159  1  0.80831088  0.01647297  0.33429105  1
  C  C3160  1  0.79161337  0.05890240  0.34929549  1
  O  O3161  1  0.85820599  0.08060434  0.29593868  1
  C  C3162  1  0.85908020  0.05837095  0.29129889  1
  O  O3163  1  0.79226475  0.08137345  0.35152493  1
  O  O3164  1  0.77484530  0.04665434  0.36046927  1
  H  H3165  1  0.79451860  0.00873467  0.34619613  1
  H  H3166  1  0.85873892  0.00765872  0.29524400  1
  H  H3167  1  0.78665732  0.10445078  0.26039743  1
  O  O3168  1  0.83028126  0.10511381  0.25501737  1
  H  H3169  1  0.76034351  0.11302482  0.28292899  1
  Zn  Zn3170  1  0.76620902  0.11060243  0.37058486  1
  Zn  Zn3171  1  0.86997388  0.11330252  0.27435264  1
  O  O3172  1  0.87241375  0.04846854  0.27402621  1
  H  H3173  1  0.95960363  0.00594476  0.25322698  1
  O  O3174  1  0.94105572  0.11786313  0.27870881  1
  O  O3175  1  0.90530519  0.12300207  0.29835208  1
  Zn  Zn3176  1  0.60840090  0.14053342  0.27102371  1
  O  O3177  1  0.54904379  0.15041115  0.27075230  1
  O  O3178  1  0.58115196  0.15407344  0.29549496  1
  C  C3179  1  0.55883598  0.15874677  0.29018807  1
  C  C3180  1  0.54295257  0.17294024  0.30821311  1
  C  C3181  1  0.55790823  0.18547673  0.32595469  1
  H  H3182  1  0.57792747  0.18387031  0.32572305  1
  C  C3183  1  0.51945534  0.20219610  0.34294582  1
  C  C3184  1  0.51701551  0.17620860  0.30835344  1
  C  C3185  1  0.54523439  0.20038088  0.34291852  1
  H  H3186  1  0.50446619  0.16637483  0.29507387  1
  C  C3187  1  0.50387986  0.19095400  0.32547975  1
  H  H3188  1  0.51179520  0.21126429  0.35821090  1
  O  O3189  1  0.61844982  0.17875925  0.26106560  1
  O  O3190  1  0.58262235  0.20386419  0.36516916  1
  H  H3191  1  0.62180423  0.22035160  0.27015653  1
  C  C3192  1  0.61961007  0.22738190  0.25027304  1
  H  H3193  1  0.61858576  0.24449349  0.29401383  1
  C  C3194  1  0.56048055  0.21129357  0.36364587  1
  C  C3195  1  0.66401440  0.12720376  0.25713579  1
  O  O3196  1  0.64729065  0.12870571  0.27360812  1
  O  O3197  1  0.86797906  0.15474733  0.27694653  1
  O  O3198  1  0.83121043  0.22652674  0.36585321  1
  C  C3199  1  0.82671591  0.24901258  0.36643274  1
  H  H3200  1  0.78695076  0.22089581  0.37461838  1
  C  C3201  1  0.87247944  0.16874692  0.25917156  1
  C  C3202  1  0.87458858  0.19687501  0.26352086  1
  C  C3203  1  0.87371244  0.20361023  0.28854183  1
  C  C3204  1  0.87438813  0.24634258  0.27567763  1
  C  C3205  1  0.87434304  0.23832576  0.25090623  1
  Zn  Zn3206  1  0.87107205  0.21055066  0.37257924  1
  O  O3207  1  0.88402972  0.21717962  0.33527104  1
  H  H3208  1  0.87555577  0.18886284  0.30399805  1
  C  C3209  1  0.88113294  0.23502943  0.32048055  1
  C  C3210  1  0.87560401  0.22869287  0.29430600  1
  C  C3211  1  0.92716940  0.12817988  0.29454552  1
  H  H3212  1  0.97486110  0.13621435  0.29382723  1
  C  C3213  1  0.96681049  0.17688002  0.34302593  1
  C  C3214  1  0.94178751  0.14430897  0.31228355  1
  C  C3215  1  0.92759147  0.15623465  0.33072704  1
  H  H3216  1  0.90676771  0.15450805  0.33222312  1
  C  C3217  1  0.94095620  0.17254347  0.34492016  1
  C  C3218  1  0.96704757  0.14585763  0.30954987  1
  C  C3219  1  0.97991028  0.16196862  0.32578594  1
  H  H3220  1  0.97569299  0.18814475  0.35856457  1
  C  C3221  1  0.92420721  0.18735023  0.36323926  1
  O  O3222  1  0.90201816  0.18281548  0.36423601  1
  O  O3223  1  0.61567947  0.25719180  0.34072089  1
  C  C3224  1  0.52301154  0.33248565  0.34818816  1
  C  C3225  1  0.56336718  0.34342733  0.33075991  1
  C  C3226  1  0.57713403  0.33011158  0.34769957  1
  C  C3227  1  0.53766148  0.34401736  0.32941678  1
  H  H3228  1  0.59671626  0.32796195  0.34880866  1
  C  C3229  1  0.53679567  0.31899627  0.36599845  1
  C  C3230  1  0.56283004  0.31772770  0.36566332  1
  H  H3231  1  0.52882741  0.35477035  0.31384042  1
  C  C3232  1  0.57848965  0.35696384  0.31109969  1
  O  O3233  1  0.60121825  0.35946823  0.31426049  1
  C  C3234  1  0.62123151  0.26369820  0.28935855  1
  C  C3235  1  0.62361686  0.27114208  0.26366198  1
  C  C3236  1  0.62411304  0.27709021  0.33430311  1
  O  O3237  1  0.56727204  0.36980382  0.29574417  1
  C  C3238  1  0.62557303  0.28249314  0.30656222  1
  C  C3239  1  0.63050062  0.29545358  0.25761342  1
  C  C3240  1  0.63337290  0.30665874  0.30186457  1
  C  C3241  1  0.63544615  0.31270962  0.27673177  1
  H  H3242  1  0.63652972  0.32039892  0.31754241  1
  O  O3243  1  0.63297611  0.29223811  0.35031739  1
  C  C3244  1  0.64392008  0.33824681  0.26887827  1
  O  O3245  1  0.64879829  0.35197557  0.28679259  1
  O  O3246  1  0.72737670  0.35893707  0.35046790  1
  C  C3247  1  0.74411707  0.36034759  0.33435396  1
  C  C3248  1  0.73753934  0.37143533  0.30939974  1
  O  O3249  1  0.84203535  0.26518091  0.35945606  1
  O  O3250  1  0.76687164  0.35574698  0.33796460  1
  Zn  Zn3251  1  0.78702243  0.37105940  0.37232855  1
  H  H3252  1  0.77206821  0.36157383  0.29519368  1
  C  C3253  1  0.75470434  0.36963212  0.29014637  1
  H  H3254  1  0.87821454  0.28813224  0.25990921  1
  O  O3255  1  0.88074744  0.25761954  0.32737808  1
  H  H3256  1  0.87525905  0.26564766  0.27990635  1
  C  C3257  1  0.99038087  0.32123831  0.33396673  1
  C  C3258  1  0.94953646  0.30688570  0.34680134  1
  C  C3259  1  0.93616568  0.32121707  0.32964991  1
  H  H3260  1  0.91602639  0.31721758  0.32746187  1
  C  C3261  1  0.95127388  0.33587899  0.31500466  1
  C  C3262  1  0.97736071  0.33578539  0.31563744  1
  C  C3263  1  0.97544921  0.30615745  0.34969221  1
  C  C3264  1  0.93709794  0.35035102  0.29492297  1
  H  H3265  1  0.98869474  0.34897827  0.30336167  1
  C  C3266  1  0.93502507  0.29070687  0.36464958  1
  O  O3267  1  0.91496130  0.35308331  0.29628508  1
  O  O3268  1  0.91180739  0.29523862  0.36510190  1
  H  H3269  1  0.98394933  0.29393702  0.36393518  1
  O  O3270  1  0.94993195  0.35745995  0.27616274  1
  Zn  Zn3271  1  0.88147134  0.27074715  0.36859424  1
  O  O3272  1  0.88394196  0.33648945  0.25234955  1
  Zn  Zn3273  1  0.88513188  0.37410998  0.27072295  1
  Zn  Zn3274  1  0.57574743  0.37764661  0.25890060  1
  O  O3275  1  0.60903556  0.39245821  0.26102946  1
  O  O3276  1  0.60689314  0.45102208  0.29474645  1
  Zn  Zn3277  1  0.60268162  0.42895673  0.25794069  1
  O  O3278  1  0.61491430  0.41829691  0.31663387  1
  C  C3279  1  0.61898780  0.44045013  0.31125842  1
  H  H3280  1  0.54319795  0.47756641  0.25253964  1
  Zn  Zn3281  1  0.62832666  0.38668720  0.29493631  1
  C  C3282  1  0.71433502  0.38005457  0.30314316  1
  H  H3283  1  0.62560786  0.48832231  0.31128327  1
  C  C3284  1  0.66193683  0.49238506  0.33256418  1
  H  H3285  1  0.69637572  0.48634513  0.35094504  1
  H  H3286  1  0.69997424  0.37907410  0.31736734  1
  O  O3287  1  0.66749869  0.40079450  0.29451831  1
  C  C3288  1  0.70688917  0.38868140  0.27938004  1
  C  C3289  1  0.68115608  0.39864456  0.27611615  1
  C  C3290  1  0.69670816  0.43782161  0.36040369  1
  C  C3291  1  0.67881944  0.47848953  0.34665763  1
  C  C3292  1  0.64150971  0.47952458  0.32229278  1
  H  H3293  1  0.65313615  0.41928636  0.34067187  1
  C  C3294  1  0.63930137  0.45443757  0.32522097  1
  C  C3295  1  0.65493825  0.44005573  0.33946670  1
  C  C3296  1  0.67476018  0.45292148  0.35027358  1
  O  O3297  1  0.69549861  0.41553601  0.36333628  1
  O  O3298  1  0.71726592  0.44798976  0.36524820  1
  C  C3299  1  0.72410315  0.38714926  0.26034083  1
  C  C3300  1  0.74802627  0.37919922  0.26642420  1
  O  O3301  1  0.67312116  0.40117304  0.25388986  1
  O  O3302  1  0.84459642  0.37658298  0.25967263  1
  H  H3303  1  0.79715391  0.38105202  0.27030064  1
  O  O3304  1  0.77802844  0.43763164  0.35580798  1
  O  O3305  1  0.79765856  0.40179503  0.34823756  1
  H  H3306  1  0.80124792  0.47298793  0.34430265  1
  C  C3307  1  0.81637787  0.43876193  0.33488076  1
  C  C3308  1  0.83598400  0.42556643  0.32566501  1
  C  C3309  1  0.81636670  0.46429489  0.33445892  1
  C  C3310  1  0.83591123  0.47860516  0.32364614  1
  H  H3311  1  0.83377465  0.40525173  0.32567346  1
  C  C3312  1  0.85456524  0.43887006  0.31229922  1
  C  C3313  1  0.85497653  0.46442960  0.31194306  1
  C  C3314  1  0.79537385  0.42481450  0.34685605  1
  H  H3315  1  0.86983951  0.47315253  0.30155348  1
  C  C3316  1  0.87325743  0.42545576  0.29606792  1
  C  C3317  1  0.79230828  0.37978647  0.25042217  1
  H  H3318  1  0.99783367  0.41271579  0.26263975  1
  O  O3319  1  0.87569595  0.40251935  0.29620011  1
  O  O3320  1  0.88670667  0.43981447  0.28402749  1
  O  O3321  1  0.95287874  0.41370459  0.26637550  1
  C  C3322  1  0.95203675  0.43613743  0.25935716  1
  C  C3323  1  0.99878116  0.43292024  0.26000767  1
  O  O3324  1  0.93241919  0.44721228  0.25603393  1
  H  H3325  1  0.96004824  0.48320104  0.25443997  1
  C  C3326  1  0.97776972  0.44806111  0.25831078  1
  C  C3327  1  0.97769091  0.47347459  0.25331042  1
  Zn  Zn3328  1  0.70347041  0.10479140  0.37687577  1
  O  O3329  1  0.73796141  0.09254695  0.38593706  1
  O  O3330  1  0.70506037  0.10031028  0.44206063  1
  C  C3331  1  0.68767234  0.11171586  0.43265313  1
  O  O3332  1  0.68065868  0.10622996  0.41118892  1
  Zn  Zn3333  1  0.73940959  0.09075805  0.42285869  1
  O  O3334  1  0.74769568  0.05503791  0.44038140  1
  C  C3335  1  0.74735372  0.01071588  0.44113178  1
  C  C3336  1  0.74490119  0.03579914  0.42839834  1
  O  O3337  1  0.73878879  0.03416022  0.40598833  1
  H  H3338  1  0.69054032  0.12098590  0.48055243  1
  C  C3339  1  0.75203387  0.01249546  0.46638613  1
  H  H3340  1  0.75471081  0.03117717  0.47490019  1
  O  O3341  1  0.76937684  0.11070562  0.44143564  1
  C  C3342  1  0.78493738  0.12194487  0.42784119  1
  O  O3343  1  0.78825359  0.11555761  0.40582778  1
  O  O3344  1  0.54889602  0.22318794  0.37989357  1
  Zn  Zn3345  1  0.61413526  0.21312314  0.38339400  1
  O  O3346  1  0.60887943  0.24647362  0.40060327  1
  Zn  Zn3347  1  0.62147177  0.24496513  0.43641257  1
  Zn  Zn3348  1  0.57086078  0.24877157  0.40381956  1
  O  O3349  1  0.55801427  0.24255973  0.44157535  1
  C  C3350  1  0.57022476  0.24656363  0.46133985  1
  H  H3351  1  0.52077129  0.23958778  0.46876627  1
  C  C3352  1  0.53033715  0.24405197  0.48620162  1
  C  C3353  1  0.55583778  0.24690600  0.48562357  1
  O  O3354  1  0.65318801  0.21485131  0.37587763  1
  C  C3355  1  0.66982031  0.23076286  0.38076342  1
  C  C3356  1  0.73922315  0.23023666  0.38697967  1
  C  C3357  1  0.71441299  0.23757421  0.38343927  1
  O  O3358  1  0.62571377  0.20574102  0.44772431  1
  O  O3359  1  0.62561933  0.18482502  0.41257227  1
  C  C3360  1  0.72968390  0.15890589  0.37921902  1
  O  O3361  1  0.71179231  0.14584342  0.38477409  1
  H  H3362  1  0.68453238  0.18091882  0.37764176  1
  C  C3363  1  0.74258008  0.20417940  0.38375935  1
  C  C3364  1  0.72441956  0.18606721  0.38073030  1
  C  C3365  1  0.63172587  0.18679115  0.43460125  1
  C  C3366  1  0.69948291  0.19472468  0.37987145  1
  C  C3367  1  0.69525570  0.22021103  0.38089496  1
  C  C3368  1  0.67225286  0.13032376  0.44621707  1
  C  C3369  1  0.67775185  0.13396281  0.47112266  1
  C  C3370  1  0.64668467  0.16669813  0.44692218  1
  C  C3371  1  0.65722603  0.14719700  0.43388308  1
  H  H3372  1  0.65251604  0.14525045  0.41380453  1
  C  C3373  1  0.64976218  0.16908976  0.47287726  1
  H  H3374  1  0.63996833  0.18444989  0.48100925  1
  C  C3375  1  0.66589080  0.15312069  0.48573318  1
  C  C3376  1  0.78342519  0.23974673  0.37927414  1
  C  C3377  1  0.76024643  0.24907708  0.38613558  1
  O  O3378  1  0.75124869  0.15059552  0.37833798  1
  H  H3379  1  0.76144495  0.19603535  0.38670706  1
  H  H3380  1  0.78647007  0.13319478  0.47660128  1
  C  C3381  1  0.79971675  0.14434836  0.46610945  1
  C  C3382  1  0.83112366  0.17259007  0.43807844  1
  C  C3383  1  0.81654657  0.15570821  0.42559641  1
  H  H3384  1  0.81711084  0.15209428  0.40443836  1
  C  C3385  1  0.80125429  0.14116000  0.44037629  1
  C  C3386  1  0.83183461  0.17535687  0.46393194  1
  C  C3387  1  0.81539500  0.16125436  0.47806644  1
  C  C3388  1  0.84880390  0.18954290  0.42265206  1
  H  H3389  1  0.84244024  0.18865796  0.47507697  1
  O  O3390  1  0.85281522  0.18586940  0.40049878  1
  O  O3391  1  0.86087623  0.20523254  0.43415541  1
  O  O3392  1  0.93526347  0.20257220  0.37680788  1
  Zn  Zn3393  1  0.87719268  0.24042816  0.42167046  1
  O  O3394  1  0.88836825  0.24203083  0.38633156  1
  O  O3395  1  0.90693129  0.23092353  0.44506161  1
  C  C3396  1  0.94412240  0.23940293  0.46755720  1
  C  C3397  1  0.92923880  0.23753757  0.44415080  1
  C  C3398  1  0.93127698  0.23349218  0.49000429  1
  O  O3399  1  0.94033636  0.24140090  0.42377765  1
  H  H3400  1  0.91167335  0.22622218  0.48849966  1
  Zn  Zn3401  1  0.92652057  0.23987618  0.38669158  1
  C  C3402  1  0.96906377  0.24495412  0.46831948  1
  C  C3403  1  0.98319937  0.24485523  0.49107981  1
  H  H3404  1  0.97940727  0.24856184  0.45098949  1
  H  H3405  1  0.52682999  0.31012188  0.38186724  1
  C  C3406  1  0.57538471  0.30312026  0.38611734  1
  O  O3407  1  0.59289407  0.25116387  0.46240207  1
  O  O3408  1  0.59789027  0.30630895  0.39055022  1
  O  O3409  1  0.56263830  0.28801746  0.39861020  1
  H  H3410  1  0.70769477  0.25601900  0.38269101  1
  O  O3411  1  0.66560278  0.25327459  0.38113392  1
  Zn  Zn3412  1  0.62830398  0.27538396  0.38630997  1
  H  H3413  1  0.73681128  0.28035506  0.39383851  1
  O  O3414  1  0.64618716  0.27395876  0.44924353  1
  Zn  Zn3415  1  0.73051400  0.35938186  0.38901812  1
  O  O3416  1  0.65199595  0.29500715  0.41429222  1
  C  C3417  1  0.65490268  0.29089411  0.43737351  1
  C  C3418  1  0.69293682  0.34534730  0.48073462  1
  C  C3419  1  0.69476032  0.34576772  0.45485333  1
  C  C3420  1  0.68134520  0.32903689  0.44006865  1
  H  H3421  1  0.68068595  0.32871451  0.41940652  1
  C  C3422  1  0.66873010  0.31028615  0.45263572  1
  C  C3423  1  0.66738735  0.30761614  0.47815736  1
  C  C3424  1  0.70895699  0.36487208  0.43947126  1
  O  O3425  1  0.70441085  0.36673441  0.41660504  1
  H  H3426  1  0.65581576  0.29348456  0.48756580  1
  H  H3427  1  0.70352925  0.35817664  0.49138275  1
  C  C3428  1  0.68014622  0.32611275  0.49249095  1
  H  H3429  1  0.81288146  0.29657541  0.37887836  1
  C  C3430  1  0.80175196  0.25800426  0.37590650  1
  C  C3431  1  0.79812794  0.28249299  0.38103721  1
  C  C3432  1  0.77441230  0.29172136  0.38721862  1
  C  C3433  1  0.75575260  0.27435589  0.38928015  1
  O  O3434  1  0.75300691  0.32749473  0.39959497  1
  O  O3435  1  0.79043593  0.33191882  0.38507827  1
  C  C3436  1  0.77308883  0.31873388  0.39242540  1
  C  C3437  1  0.81141308  0.37272150  0.42485222  1
  H  H3438  1  0.84281014  0.29150970  0.47020786  1
  H  H3439  1  0.84059138  0.33617002  0.40444520  1
  C  C3440  1  0.83750541  0.30902370  0.46233908  1
  H  H3441  1  0.80801113  0.36345046  0.47280295  1
  C  C3442  1  0.82730463  0.32870198  0.47660142  1
  C  C3443  1  0.81791617  0.34875622  0.46333468  1
  C  C3444  1  0.83563973  0.33290230  0.42422001  1
  C  C3445  1  0.84166403  0.31163947  0.43680378  1
  C  C3446  1  0.82145490  0.35043935  0.43769535  1
  C  C3447  1  0.85667451  0.29246007  0.42256588  1
  O  O3448  1  0.86517547  0.29654702  0.40178339  1
  O  O3449  1  0.85936147  0.27174767  0.43312944  1
  O  O3450  1  0.94432094  0.27264818  0.37528143  1
  O  O3451  1  0.74982934  0.44498397  0.40639502  1
  O  O3452  1  0.72804882  0.37503001  0.44850942  1
  Zn  Zn3453  1  0.74590349  0.42208244  0.37578270  1
  C  C3454  1  0.75528803  0.44740953  0.42900304  1
  C  C3455  1  0.75810749  0.49443198  0.48087395  1
  O  O3456  1  0.76170030  0.42854259  0.44135664  1
  C  C3457  1  0.75873801  0.47222768  0.46729275  1
  C  C3458  1  0.75091147  0.49431193  0.42892224  1
  H  H3459  1  0.75006319  0.49503027  0.40823740  1
  C  C3460  1  0.75490114  0.47233091  0.44141018  1
  H  H3461  1  0.76185936  0.45444254  0.47554616  1
  O  O3462  1  0.79661277  0.38581674  0.43761455  1
  O  O3463  1  0.81706184  0.37823126  0.40229423  1
  O  O3464  1  0.75615997  0.38805735  0.38989577  1
  Zn  Zn3465  1  0.75759732  0.39356386  0.42878451  1
  O  O3466  1  0.70876310  0.10396079  0.55654831  1
  O  O3467  1  0.69145972  0.11627357  0.59116604  1
  C  C3468  1  0.69491619  0.11874980  0.56826601  1
  H  H3469  1  0.69154789  0.12320516  0.51659039  1
  Zn  Zn3470  1  0.74802651  0.05877445  0.61279571  1
  Zn  Zn3471  1  0.74718157  0.09437221  0.56836405  1
  O  O3472  1  0.74640973  0.03501439  0.58422315  1
  O  O3473  1  0.74599138  0.09387677  0.60488709  1
  Zn  Zn3474  1  0.71786368  0.11323709  0.62438952  1
  O  O3475  1  0.70984408  0.04807400  0.62415410  1
  C  C3476  1  0.75349631  0.01578020  0.52047168  1
  H  H3477  1  0.75039581  0.03255758  0.51002680  1
  C  C3478  1  0.75407263  0.01465544  0.54713974  1
  O  O3479  1  0.75269914  0.05820561  0.55036872  1
  C  C3480  1  0.75089415  0.03827755  0.56159260  1
  O  O3481  1  0.77839371  0.11214431  0.54957004  1
  Zn  Zn3482  1  0.77917800  0.10459512  0.61443714  1
  O  O3483  1  0.79717648  0.12335858  0.58446827  1
  O  O3484  1  0.78325803  0.04431914  0.62478330  1
  O  O3485  1  0.60852586  0.24393823  0.60875257  1
  Zn  Zn3486  1  0.57194509  0.24431819  0.61035270  1
  Zn  Zn3487  1  0.61956834  0.24198142  0.57371038  1
  C  C3488  1  0.52897192  0.24972604  0.53061894  1
  O  O3489  1  0.55679816  0.20875132  0.62388856  1
  C  C3490  1  0.51565162  0.24536101  0.50785224  1
  Zn  Zn3491  1  0.62189528  0.21100378  0.61942966  1
  O  O3492  1  0.63524461  0.21133134  0.55619310  1
  O  O3493  1  0.63673744  0.18970026  0.59064314  1
  C  C3494  1  0.68210642  0.13772409  0.52714124  1
  C  C3495  1  0.68251426  0.13859229  0.55338684  1
  H  H3496  1  0.64549113  0.18846837  0.51781341  1
  C  C3497  1  0.64207315  0.19247157  0.56804930  1
  C  C3498  1  0.65737326  0.17367680  0.55374285  1
  C  C3499  1  0.65738920  0.17491782  0.52755971  1
  C  C3500  1  0.66932489  0.15575255  0.56803195  1
  H  H3501  1  0.66816999  0.15460353  0.58805109  1
  C  C3502  1  0.66954170  0.15625368  0.51369476  1
  C  C3503  1  0.73902329  0.21150716  0.62001010  1
  O  O3504  1  0.73924457  0.15679520  0.60984926  1
  C  C3505  1  0.73386560  0.23683981  0.62220572  1
  C  C3506  1  0.72264614  0.16556634  0.62206042  1
  C  C3507  1  0.72085145  0.19372945  0.62461643  1
  C  C3508  1  0.79278910  0.12569504  0.56192610  1
  H  H3509  1  0.79459079  0.12974770  0.51242731  1
  H  H3510  1  0.75754766  0.20432656  0.61266362  1
  C  C3511  1  0.80363346  0.14634075  0.52089743  1
  C  C3512  1  0.80525105  0.14589268  0.54679668  1
  C  C3513  1  0.81850295  0.16281799  0.56091801  1
  H  H3514  1  0.82048750  0.16381317  0.58090877  1
  C  C3515  1  0.83178030  0.17960739  0.54643559  1
  C  C3516  1  0.83101817  0.18005839  0.51988194  1
  C  C3517  1  0.84765706  0.19919679  0.55849100  1
  O  O3518  1  0.85202183  0.19675282  0.58084182  1
  O  O3519  1  0.85619876  0.21705532  0.54588767  1
  O  O3520  1  0.83033369  0.23850040  0.61475474  1
  H  H3521  1  0.78621159  0.23219060  0.61674628  1
  H  H3522  1  0.84368637  0.19233613  0.51069270  1
  C  C3523  1  0.81654322  0.16343449  0.50634346  1
  Zn  Zn3524  1  0.87132198  0.21810824  0.60988811  1
  O  O3525  1  0.94165370  0.21799896  0.60710678  1
  O  O3526  1  0.90794451  0.23123932  0.53634062  1
  C  C3527  1  0.93098008  0.23366462  0.53696227  1
  O  O3528  1  0.90876843  0.19437581  0.60981426  1
  C  C3529  1  0.93008808  0.19924968  0.61489448  1
  C  C3530  1  0.94373916  0.23675562  0.51199888  1
  C  C3531  1  0.96941613  0.24173399  0.51344781  1
  O  O3532  1  0.94110052  0.24074063  0.55654801  1
  H  H3533  1  0.97722207  0.24105171  0.53251249  1
  Zn  Zn3534  1  0.88011737  0.24642697  0.55988354  1
  O  O3535  1  0.88841980  0.24748347  0.59497723  1
  H  H3536  1  0.52170265  0.25198706  0.54909353  1
  O  O3537  1  0.55545774  0.25940582  0.57411080  1
  C  C3538  1  0.55429193  0.25235785  0.52998463  1
  C  C3539  1  0.56694694  0.26008555  0.55440918  1
  C  C3540  1  0.56840000  0.25089799  0.50818944  1
  H  H3541  1  0.58814402  0.25358178  0.50917850  1
  O  O3542  1  0.59022154  0.26305552  0.55364523  1
  O  O3543  1  0.64358828  0.27414227  0.56415132  1
  O  O3544  1  0.64642925  0.29422485  0.59876112  1
  C  C3545  1  0.65049605  0.29198307  0.57587328  1
  H  H3546  1  0.65585274  0.29426088  0.52776117  1
  C  C3547  1  0.67696778  0.32907155  0.57425446  1
  C  C3548  1  0.66648321  0.31001601  0.56084572  1
  C  C3549  1  0.66635508  0.30915805  0.53478977  1
  C  C3550  1  0.69315207  0.34498957  0.53384134  1
  C  C3551  1  0.67948407  0.32686317  0.52016547  1
  H  H3552  1  0.67504945  0.33054469  0.59447517  1
  C  C3553  1  0.69018416  0.34622145  0.55925781  1
  H  H3554  1  0.70465642  0.35940173  0.52486675  1
  C  C3555  1  0.70551491  0.36624128  0.57221678  1
  O  O3556  1  0.70018417  0.37025089  0.59432006  1
  C  C3557  1  0.74579585  0.28225090  0.61967488  1
  H  H3558  1  0.72667628  0.28633495  0.61844255  1
  O  O3559  1  0.73741717  0.33485723  0.61515017  1
  C  C3560  1  0.77861164  0.25035484  0.61662509  1
  C  C3561  1  0.75344858  0.25701448  0.62039604  1
  C  C3562  1  0.81017361  0.34422857  0.51877491  1
  C  C3563  1  0.81570726  0.34707598  0.54388726  1
  C  C3564  1  0.83504761  0.33442122  0.55580978  1
  H  H3565  1  0.83922566  0.33614476  0.57663390  1
  C  C3566  1  0.84653889  0.31590142  0.54264936  1
  C  C3567  1  0.84504033  0.31479688  0.51697836  1
  H  H3568  1  0.79487385  0.35289240  0.50908404  1
  C  C3569  1  0.79960734  0.36285003  0.56060721  1
  C  C3570  1  0.79741850  0.26851105  0.61517599  1
  C  C3571  1  0.82420870  0.26025428  0.61406849  1
  C  C3572  1  0.78925329  0.29271840  0.61614670  1
  O  O3573  1  0.80319643  0.36641511  0.58326428  1
  H  H3574  1  0.85670910  0.30192555  0.50713840  1
  C  C3575  1  0.82698704  0.32870099  0.50410219  1
  C  C3576  1  0.86650031  0.30013248  0.55597617  1
  O  O3577  1  0.83996866  0.27723020  0.61086913  1
  H  H3578  1  0.80415714  0.30655473  0.61531377  1
  O  O3579  1  0.77766782  0.34037110  0.61769847  1
  C  C3580  1  0.76419837  0.29974792  0.61755405  1
  C  C3581  1  0.75941360  0.32715708  0.61612676  1
  O  O3582  1  0.87408268  0.30437720  0.57666629  1
  Zn  Zn3583  1  0.88130254  0.27716878  0.61366695  1
  Zn  Zn3584  1  0.92543860  0.25127630  0.59464319  1
  O  O3585  1  0.87520087  0.28238540  0.54358776  1
  O  O3586  1  0.93581612  0.28691077  0.61005608  1
  H  H3587  1  0.97765367  0.30867691  0.62383032  1
  C  C3588  1  0.99063896  0.27619491  0.60113320  1
  O  O3589  1  0.71863969  0.38099846  0.56017039  1
  Zn  Zn3590  1  0.75087333  0.43191616  0.61542722  1
  O  O3591  1  0.78440800  0.37687107  0.54971473  1
  O  O3592  1  0.76355591  0.42845142  0.55152181  1
  C  C3593  1  0.76405208  0.44864976  0.56241336  1
  C  C3594  1  0.75986617  0.49403336  0.56102890  1
  O  O3595  1  0.76427756  0.45223035  0.58568045  1
  C  C3596  1  0.75820041  0.49262128  0.50842300  1
  C  C3597  1  0.76079077  0.47058431  0.52129052  1
  C  C3598  1  0.76103335  0.47212964  0.54742077  1
  H  H3599  1  0.76429405  0.45163376  0.51303907  1
  Zn  Zn3600  1  0.75486272  0.39483260  0.56997104  1
  O  O3601  1  0.75240535  0.39471024  0.60747442  1
  Zn  Zn3602  1  0.78322789  0.38053833  0.61869815  1
  H  H3603  1  0.76029264  0.49387007  0.58199676  1
  C  C3604  1  0.50293949  0.00527352  0.74845504  1
  Zn  Zn3605  1  0.62111560  0.11287709  0.73205561  1
  C  C3606  1  0.52766125  0.01621937  0.74905549  1
  C  C3607  1  0.50467662  0.05578799  0.74973080  1
  C  C3608  1  0.52700710  0.04122744  0.74899283  1
  O  O3609  1  0.62092848  0.04882605  0.72377044  1
  O  O3610  1  0.63671424  0.08227992  0.70770281  1
  C  C3611  1  0.65978739  0.00642319  0.66962168  1
  C  C3612  1  0.63450845  0.06013035  0.70837532  1
  H  H3613  1  0.63189695  0.01252312  0.70056400  1
  O  O3614  1  0.69636306  0.08106278  0.64317560  1
  H  H3615  1  0.66892951  0.07819795  0.67469249  1
  C  C3616  1  0.66483358  0.05862505  0.67216222  1
  C  C3617  1  0.64883104  0.04561859  0.68808337  1
  C  C3618  1  0.69655127  0.05807304  0.64029919  1
  C  C3619  1  0.67834427  0.04357747  0.65570048  1
  C  C3620  1  0.64579421  0.02046842  0.68765919  1
  C  C3621  1  0.67669993  0.01827506  0.65391417  1
  H  H3622  1  0.68685929  0.00774452  0.63970883  1
  O  O3623  1  0.73454209  0.11374763  0.66228922  1
  H  H3624  1  0.72987052  0.11429373  0.70507827  1
  C  C3625  1  0.74904436  0.11393517  0.71231494  1
  H  H3626  1  0.70732819  0.11953553  0.73473609  1
  O  O3627  1  0.80699943  0.07743954  0.62810003  1
  C  C3628  1  0.83455535  0.00567729  0.67152986  1
  C  C3629  1  0.80203506  0.05570654  0.63340224  1
  H  H3630  1  0.80235660  0.00775751  0.64452853  1
  C  C3631  1  0.81766378  0.01796562  0.65490516  1
  C  C3632  1  0.81979737  0.04267554  0.65042208  1
  C  C3633  1  0.83861033  0.05668939  0.66185303  1
  H  H3634  1  0.84030926  0.07709096  0.65646586  1
  C  C3635  1  0.85187538  0.01991742  0.68461053  1
  C  C3636  1  0.85347241  0.04466759  0.67972991  1
  C  C3637  1  0.76713082  0.11457913  0.69407381  1
  C  C3638  1  0.79242148  0.11738291  0.70041541  1
  O  O3639  1  0.84149351  0.12235678  0.71143142  1
  C  C3640  1  0.75697255  0.11559180  0.66785689  1
  H  H3641  1  0.80540581  0.11737874  0.68457333  1
  O  O3642  1  0.77262522  0.12079537  0.65183659  1
  C  C3643  1  0.75567618  0.11778747  0.73768208  1
  C  C3644  1  0.79978238  0.11913395  0.72555914  1
  C  C3645  1  0.82778846  0.12181374  0.73022973  1
  C  C3646  1  0.78145894  0.12064839  0.74350235  1
  H  H3647  1  0.86549989  0.01277943  0.69786941  1
  C  C3648  1  0.87133504  0.06127275  0.69323083  1
  O  O3649  1  0.87110509  0.08350906  0.68836755  1
  O  O3650  1  0.88666573  0.05318074  0.70901172  1
  Zn  Zn3651  1  0.88457292  0.11821181  0.70371994  1
  O  O3652  1  0.89896644  0.11108229  0.73829135  1
  Zn  Zn3653  1  0.90173834  0.07464614  0.74044878  1
  Zn  Zn3654  1  0.93335616  0.12034387  0.73876940  1
  C  C3655  1  0.98280985  0.05472892  0.74296915  1
  H  H3656  1  0.96293092  0.02009675  0.74433728  1
  C  C3657  1  0.98150535  0.02933346  0.74334122  1
  O  O3658  1  0.93793817  0.05696653  0.74147169  1
  C  C3659  1  0.95797973  0.06820230  0.74316685  1
  O  O3660  1  0.95841181  0.09055884  0.74894025  1
  O  O3661  1  0.56224342  0.12585430  0.72529739  1
  C  C3662  1  0.57451053  0.13682516  0.70924622  1
  O  O3663  1  0.59771126  0.13623907  0.70841207  1
  H  H3664  1  0.52233288  0.14512128  0.70938339  1
  O  O3665  1  0.59140732  0.19518179  0.64032764  1
  C  C3666  1  0.56793348  0.19496698  0.63874777  1
  H  H3667  1  0.51966509  0.19288930  0.64451244  1
  C  C3668  1  0.53036831  0.18040917  0.65777376  1
  C  C3669  1  0.55581665  0.17978175  0.65834967  1
  C  C3670  1  0.57053205  0.16584434  0.67526144  1
  H  H3671  1  0.59042005  0.16372382  0.67385049  1
  C  C3672  1  0.55788888  0.15254628  0.69303944  1
  C  C3673  1  0.53170536  0.15441225  0.69375504  1
  C  C3674  1  0.51717794  0.16833387  0.67700801  1
  C  C3675  1  0.70996688  0.24390313  0.62949526  1
  O  O3676  1  0.70585494  0.15166108  0.63098563  1
  C  C3677  1  0.69767874  0.20091015  0.63352447  1
  H  H3678  1  0.68503432  0.18643945  0.64033951  1
  C  C3679  1  0.69210518  0.22610823  0.63570517  1
  O  O3680  1  0.65083305  0.21598524  0.64613876  1
  C  C3681  1  0.66603095  0.23321472  0.64208597  1
  O  O3682  1  0.87455826  0.21855270  0.64701006  1
  C  C3683  1  0.87777354  0.23654557  0.66233782  1
  H  H3684  1  0.88228877  0.19250707  0.68424051  1
  C  C3685  1  0.88359237  0.20697235  0.69750492  1
  C  C3686  1  0.88249674  0.23094145  0.68909728  1
  O  O3687  1  0.88096560  0.16001599  0.71129664  1
  C  C3688  1  0.88252574  0.20121905  0.72352166  1
  C  C3689  1  0.88083053  0.17480927  0.72902475  1
  O  O3690  1  0.94612349  0.12653770  0.69927190  1
  H  H3691  1  0.98005825  0.20377037  0.62676817  1
  O  O3692  1  0.91181347  0.12849082  0.67736037  1
  C  C3693  1  0.88328125  0.22019949  0.74056979  1
  C  C3694  1  0.88502436  0.24505515  0.73228324  1
  C  C3695  1  0.94601701  0.18456015  0.63335144  1
  C  C3696  1  0.93358590  0.13492860  0.68200172  1
  C  C3697  1  0.98608954  0.17268490  0.65126998  1
  H  H3698  1  0.98246020  0.14460762  0.68053474  1
  C  C3699  1  0.97128764  0.18817160  0.63549562  1
  C  C3700  1  0.97273650  0.15547971  0.66717412  1
  H  H3701  1  0.91377758  0.16291267  0.64633106  1
  C  C3702  1  0.93406126  0.16595340  0.64706610  1
  C  C3703  1  0.94718781  0.15249778  0.66421755  1
  Zn  Zn3704  1  0.62464086  0.27071992  0.62520823  1
  O  O3705  1  0.55934421  0.27121166  0.63598078  1
  O  O3706  1  0.59308774  0.29183095  0.64226272  1
  C  C3707  1  0.57035402  0.28922781  0.64555779  1
  H  H3708  1  0.52171295  0.28829728  0.64953055  1
  C  C3709  1  0.51532071  0.32499478  0.66982413  1
  H  H3710  1  0.58858468  0.32868944  0.66689830  1
  C  C3711  1  0.52866177  0.34427570  0.68089838  1
  C  C3712  1  0.55479701  0.30738627  0.65818862  1
  C  C3713  1  0.56852981  0.32804320  0.66834931  1
  C  C3714  1  0.52941591  0.30546784  0.65949488  1
  C  C3715  1  0.55484782  0.34444781  0.68150015  1
  H  H3716  1  0.51779429  0.35834243  0.69073755  1
  C  C3717  1  0.56963899  0.36502845  0.69565338  1
  O  O3718  1  0.59255638  0.36547866  0.69698733  1
  Zn  Zn3719  1  0.61656902  0.37294155  0.73262612  1
  O  O3720  1  0.60623190  0.33407750  0.74848017  1
  O  O3721  1  0.56685321  0.34310530  0.74693663  1
  Zn  Zn3722  1  0.72530195  0.37278503  0.62701361  1
  O  O3723  1  0.66055661  0.25553522  0.64367247  1
  H  H3724  1  0.70588448  0.26328450  0.63017028  1
  O  O3725  1  0.65685108  0.37163009  0.74811134  1
  H  H3726  1  0.72704456  0.37005641  0.71324870  1
  O  O3727  1  0.73595573  0.37341894  0.66610075  1
  C  C3728  1  0.74568671  0.37485379  0.71882856  1
  O  O3729  1  0.87255636  0.33925659  0.73050071  1
  C  C3730  1  0.75750551  0.37492788  0.67263844  1
  O  O3731  1  0.77604448  0.37350722  0.65905947  1
  C  C3732  1  0.92697755  0.30229452  0.62524493  1
  H  H3733  1  0.88121116  0.29586519  0.72548879  1
  C  C3734  1  0.88401670  0.25035197  0.70694526  1
  O  O3735  1  0.87553733  0.25813774  0.65470822  1
  O  O3736  1  0.90355420  0.30402427  0.62661391  1
  H  H3737  1  0.88262578  0.26963392  0.70136057  1
  C  C3738  1  0.88333520  0.28981208  0.74520406  1
  O  O3739  1  0.90775454  0.36121856  0.69577989  1
  C  C3740  1  0.93054918  0.36331875  0.69443136  1
  H  H3741  1  0.98188725  0.35732221  0.68957480  1
  C  C3742  1  0.94212033  0.32025831  0.64027405  1
  C  C3743  1  0.98096593  0.33207276  0.65698369  1
  C  C3744  1  0.96809515  0.31875558  0.63874447  1
  C  C3745  1  0.94465846  0.34822282  0.67533566  1
  C  C3746  1  0.93027714  0.33534569  0.65804389  1
  H  H3747  1  0.90994928  0.33740786  0.65934560  1
  C  C3748  1  0.97013252  0.34660707  0.67607651  1
  O  O3749  1  0.55735753  0.38169997  0.70575144  1
  O  O3750  1  0.61760588  0.44055806  0.72036335  1
  C  C3751  1  0.53904498  0.43274570  0.74988102  1
  O  O3752  1  0.53656124  0.41011654  0.74719494  1
  H  H3753  1  0.70075044  0.37658646  0.73847494  1
  H  H3754  1  0.62842561  0.47461260  0.69469796  1
  O  O3755  1  0.71201546  0.43652595  0.62690337  1
  C  C3756  1  0.63036964  0.42716716  0.70574629  1
  O  O3757  1  0.63310534  0.40493753  0.71012096  1
  H  H3758  1  0.68837158  0.47362546  0.63899058  1
  O  O3759  1  0.69719846  0.40137732  0.64147230  1
  C  C3760  1  0.69786512  0.42436222  0.64096505  1
  C  C3761  1  0.64629335  0.43922667  0.68632214  1
  C  C3762  1  0.65837554  0.47704422  0.66651417  1
  H  H3763  1  0.66838036  0.40726092  0.67350263  1
  C  C3764  1  0.66416854  0.42657617  0.67286877  1
  C  C3765  1  0.67954164  0.43900637  0.65563693  1
  C  C3766  1  0.64250556  0.46451424  0.68368549  1
  C  C3767  1  0.67632261  0.46417342  0.65182359  1
  H  H3768  1  0.84023762  0.41459838  0.66354185  1
  C  C3769  1  0.83266440  0.48742036  0.67241990  1
  C  C3770  1  0.85245791  0.47503021  0.68396598  1
  C  C3771  1  0.81794630  0.44651019  0.65861281  1
  C  C3772  1  0.78761967  0.38196623  0.70655920  1
  C  C3773  1  0.79807369  0.43397605  0.64291086  1
  O  O3774  1  0.77865773  0.44599626  0.63822423  1
  C  C3775  1  0.75352658  0.37755006  0.74373702  1
  C  C3776  1  0.76302776  0.37692091  0.70011794  1
  C  C3777  1  0.82221998  0.38594644  0.73982547  1
  H  H3778  1  0.80220855  0.38195278  0.69222677  1
  C  C3779  1  0.83940586  0.43409779  0.66645292  1
  C  C3780  1  0.79529152  0.38394430  0.73131479  1
  C  C3781  1  0.81414524  0.47220655  0.66248482  1
  O  O3782  1  0.83611483  0.38495058  0.72125907  1
  O  O3783  1  0.80103797  0.41209661  0.63687477  1
  H  H3784  1  0.79550151  0.47977141  0.65745645  1
  H  H3785  1  0.86666404  0.48459857  0.69510858  1
  C  C3786  1  0.85450763  0.44914842  0.68120053  1
  Zn  Zn3787  1  0.92778660  0.38914175  0.74412264  1
  O  O3788  1  0.89150512  0.40021615  0.74595765  1
  O  O3789  1  0.87769589  0.41314274  0.69253889  1
  O  O3790  1  0.94229249  0.37719909  0.70917956  1
  O  O3791  1  0.88698952  0.44962735  0.70979851  1
  Zn  Zn3792  1  0.87634214  0.37938182  0.71756602  1
  C  C3793  1  0.87524786  0.43596524  0.69470581  1
  Zn  Zn3794  1  0.89369768  0.43588711  0.74663814  1
  O  O3795  1  0.60491724  0.10025179  0.76123641  1
  Zn  Zn3796  1  0.56919281  0.10913141  0.76300726  1
  Zn  Zn3797  1  0.62094013  0.11333721  0.79340263  1
  Zn  Zn3798  1  0.60525000  0.06328010  0.75761802  1
  O  O3799  1  0.61891472  0.04748768  0.79267717  1
  O  O3800  1  0.55654551  0.12326148  0.79538236  1
  O  O3801  1  0.57094664  0.04313944  0.75433893  1
  H  H3802  1  0.54506412  0.00596729  0.75067325  1
  C  C3803  1  0.55130243  0.05487749  0.75198313  1
  O  O3804  1  0.54926199  0.07806347  0.75215417  1
  H  H3805  1  0.50507070  0.07572495  0.75243310  1
  C  C3806  1  0.67652254  0.00563530  0.82477610  1
  O  O3807  1  0.63060817  0.07928897  0.81470157  1
  C  C3808  1  0.63329285  0.05812521  0.80784355  1
  H  H3809  1  0.63995122  0.00979301  0.80770817  1
  H  H3810  1  0.67386748  0.07780333  0.83191365  1
  C  C3811  1  0.65529335  0.01932092  0.81752451  1
  C  C3812  1  0.65571734  0.04486372  0.81959946  1
  C  C3813  1  0.67508374  0.05856157  0.82937978  1
  C  C3814  1  0.69754496  0.01949698  0.83230215  1
  C  C3815  1  0.69677373  0.04515538  0.83530978  1
  C  C3816  1  0.72019369  0.05560208  0.84751878  1
  O  O3817  1  0.72264209  0.07855774  0.85169232  1
  O  O3818  1  0.73774365  0.04228726  0.85276551  1
  H  H3819  1  0.71559577  0.01088322  0.83841233  1
  C  C3820  1  0.73875145  0.12264372  0.75914709  1
  C  C3821  1  0.71371673  0.12273889  0.75346621  1
  O  O3822  1  0.65870253  0.12158643  0.75001711  1
  C  C3823  1  0.84463117  0.02501824  0.82518864  1
  C  C3824  1  0.82551634  0.06408929  0.83644771  1
  C  C3825  1  0.82798729  0.03886583  0.84008170  1
  C  C3826  1  0.84000088  0.07824627  0.82023466  1
  H  H3827  1  0.84003212  0.09860273  0.81956871  1
  C  C3828  1  0.85670908  0.06333856  0.80678379  1
  C  C3829  1  0.80719025  0.07790593  0.85118078  1
  C  C3830  1  0.85956453  0.03796192  0.80900150  1
  H  H3831  1  0.81652457  0.03045576  0.85394935  1
  O  O3832  1  0.80351361  0.10069046  0.84660015  1
  H  H3833  1  0.87179975  0.02733452  0.79585357  1
  O  O3834  1  0.83672850  0.12366583  0.75130529  1
  O  O3835  1  0.79347509  0.06593482  0.86614406  1
  C  C3836  1  0.87163358  0.07692383  0.78760096  1
  O  O3837  1  0.87118556  0.09993769  0.78773923  1
  H  H3838  1  0.78715990  0.12438986  0.76234082  1
  O  O3839  1  0.88668741  0.06431767  0.77454786  1
  O  O3840  1  0.59248595  0.13477383  0.81068143  1
  C  C3841  1  0.56936969  0.13756614  0.80858237  1
  H  H3842  1  0.51926360  0.14165959  0.81231791  1
  C  C3843  1  0.55393511  0.15502418  0.82491071  1
  C  C3844  1  0.52840676  0.15562804  0.82449397  1
  C  C3845  1  0.56901821  0.17034581  0.83991675  1
  H  H3846  1  0.58915106  0.17004815  0.83979769  1
  C  C3847  1  0.51526814  0.17311639  0.83919580  1
  C  C3848  1  0.52998049  0.18798968  0.85477297  1
  C  C3849  1  0.55598880  0.18664956  0.85561801  1
  H  H3850  1  0.52096128  0.20065958  0.86654661  1
  C  C3851  1  0.57059262  0.20288593  0.87244211  1
  O  O3852  1  0.59373263  0.20171119  0.86973069  1
  C  C3853  1  0.74780635  0.12908588  0.78361420  1
  C  C3854  1  0.73068875  0.13369497  0.80164656  1
  C  C3855  1  0.69720536  0.12739319  0.77303666  1
  C  C3856  1  0.66884929  0.12861135  0.76994260  1
  H  H3857  1  0.69231471  0.13855098  0.81363371  1
  O  O3858  1  0.65608149  0.13373300  0.78831940  1
  C  C3859  1  0.70455421  0.13365946  0.79707795  1
  C  C3860  1  0.74108033  0.14139376  0.82694709  1
  O  O3861  1  0.72505295  0.14840870  0.84412733  1
  H  H3862  1  0.73141002  0.21733906  0.86902374  1
  H  H3863  1  0.76877768  0.12756750  0.78804480  1
  O  O3864  1  0.76298970  0.13900767  0.83153080  1
  C  C3865  1  0.75075386  0.22441347  0.86878400  1
  C  C3866  1  0.80027698  0.24372289  0.86917915  1
  C  C3867  1  0.75654960  0.24898392  0.86185946  1
  Zn  Zn3868  1  0.78688789  0.12994711  0.86743599  1
  H  H3869  1  0.88121142  0.21520580  0.76064081  1
  H  H3870  1  0.88712560  0.23943747  0.78300753  1
  Zn  Zn3871  1  0.87925601  0.13094818  0.76281756  1
  Zn  Zn3872  1  0.88209968  0.23062260  0.87242779  1
  O  O3873  1  0.94932203  0.14333945  0.77121812  1
  H  H3874  1  0.98253506  0.15183566  0.79720877  1
  O  O3875  1  0.91206275  0.14587751  0.78885638  1
  C  C3876  1  0.93519631  0.15111507  0.78718802  1
  C  C3877  1  0.93258108  0.17583024  0.82673824  1
  H  H3878  1  0.91268083  0.17565716  0.82481647  1
  C  C3879  1  0.94745360  0.16471475  0.80883881  1
  C  C3880  1  0.94629084  0.18783730  0.84546705  1
  C  C3881  1  0.97178749  0.18623160  0.84785732  1
  C  C3882  1  0.97296830  0.16292245  0.81036864  1
  C  C3883  1  0.98672085  0.17405893  0.82967492  1
  C  C3884  1  0.93024922  0.20299045  0.86306902  1
  O  O3885  1  0.90656854  0.20300084  0.86025714  1
  H  H3886  1  0.98104347  0.19780145  0.86199286  1
  O  O3887  1  0.99124591  0.24439043  0.87294099  1
  O  O3888  1  0.87944288  0.16755412  0.75200118  1
  O  O3889  1  0.59889813  0.25474116  0.83726439  1
  C  C3890  1  0.60302698  0.26128800  0.81513351  1
  H  H3891  1  0.55511325  0.27000225  0.82576077  1
  C  C3892  1  0.51496230  0.29432912  0.80514235  1
  H  H3893  1  0.51985579  0.27293278  0.83977576  1
  C  C3894  1  0.50289028  0.33926515  0.85064511  1
  C  C3895  1  0.58518984  0.28030155  0.80158813  1
  C  C3896  1  0.56022829  0.28101182  0.80930283  1
  C  C3897  1  0.54218285  0.29483318  0.79595673  1
  C  C3898  1  0.59545402  0.29582742  0.78410655  1
  C  C3899  1  0.55123965  0.31004839  0.77663976  1
  C  C3900  1  0.57702354  0.31072896  0.77410873  1
  H  H3901  1  0.53941693  0.32160573  0.76465858  1
  C  C3902  1  0.55350500  0.33453703  0.84200069  1
  H  H3903  1  0.57374159  0.33328441  0.83997408  1
  C  C3904  1  0.51420690  0.35341359  0.83107081  1
  C  C3905  1  0.53923173  0.35030081  0.82664923  1
  C  C3906  1  0.51621851  0.32237913  0.86528457  1
  C  C3907  1  0.54167189  0.31970871  0.85973837  1
  C  C3908  1  0.55466252  0.36329889  0.80727851  1
  H  H3909  1  0.61578390  0.29843473  0.77922422  1
  O  O3910  1  0.57794672  0.36220023  0.80775978  1
  H  H3911  1  0.50425113  0.36721371  0.81966410  1
  Zn  Zn3912  1  0.61244685  0.27997509  0.86767077  1
  C  C3913  1  0.50653795  0.28281165  0.82684193  1
  O  O3914  1  0.62138022  0.25698417  0.80305066  1
  C  C3915  1  0.55740809  0.30251696  0.87388747  1
  O  O3916  1  0.58141072  0.30551677  0.87145760  1
  O  O3917  1  0.54391696  0.37390347  0.78997701  1
  H  H3918  1  0.50381347  0.32179943  0.77716900  1
  C  C3919  1  0.58499546  0.33015991  0.75562826  1
  C  C3920  1  0.71093295  0.26026999  0.86690641  1
  C  C3921  1  0.73482515  0.26526837  0.85539020  1
  C  C3922  1  0.66592754  0.26719632  0.86224051  1
  C  C3923  1  0.73934652  0.28294641  0.83659444  1
  C  C3924  1  0.69229377  0.27269277  0.85460329  1
  C  C3925  1  0.71912762  0.29436666  0.82571873  1
  C  C3926  1  0.69571699  0.28843934  0.83362046  1
  H  H3927  1  0.68118922  0.29862196  0.82365923  1
  C  C3928  1  0.72423493  0.31209015  0.80273386  1
  O  O3929  1  0.70677222  0.31899157  0.78979978  1
  O  O3930  1  0.64969327  0.28241889  0.85444644  1
  C  C3931  1  0.66248371  0.37292621  0.77034324  1
  O  O3932  1  0.74559617  0.31837750  0.79914657  1
  O  O3933  1  0.64656037  0.37277319  0.78731616  1
  C  C3934  1  0.69044122  0.37413083  0.77685092  1
  C  C3935  1  0.69625971  0.37407771  0.80206784  1
  H  H3936  1  0.68167671  0.37345908  0.81681197  1
  O  O3937  1  0.71427532  0.36936282  0.85095522  1
  C  C3938  1  0.73023600  0.37435191  0.83436944  1
  C  C3939  1  0.82615131  0.25350789  0.87292847  1
  C  C3940  1  0.78112294  0.25918784  0.86145954  1
  H  H3941  1  0.75871899  0.28658851  0.83114323  1
  H  H3942  1  0.78552668  0.27823440  0.85817331  1
  O  O3943  1  0.83253586  0.27529191  0.86808567  1
  O  O3944  1  0.86764237  0.34878970  0.77039170  1
  Zn  Zn3945  1  0.87354243  0.28858452  0.87276580  1
  C  C3946  1  0.87336307  0.33379060  0.75356628  1
  O  O3947  1  0.88436345  0.25102112  0.83171922  1
  H  H3948  1  0.88014761  0.31594241  0.80381334  1
  O  O3949  1  0.87917085  0.29094901  0.83564405  1
  C  C3950  1  0.87947911  0.30900271  0.76273556  1
  C  C3951  1  0.88631319  0.25911064  0.77791346  1
  C  C3952  1  0.88236072  0.27146092  0.82275800  1
  C  C3953  1  0.88027059  0.30281794  0.78783747  1
  C  C3954  1  0.88241182  0.27796886  0.79405716  1
  C  C3955  1  0.98091430  0.25231314  0.85459851  1
  O  O3956  1  0.95940709  0.26312111  0.85569513  1
  H  H3957  1  0.96739018  0.28393387  0.81497146  1
  C  C3958  1  0.98114997  0.32908043  0.82736487  1
  C  C3959  1  0.94175835  0.32560225  0.85151393  1
  C  C3960  1  0.92918203  0.33915607  0.83258296  1
  H  H3961  1  0.90905000  0.34198866  0.83333923  1
  C  C3962  1  0.96728605  0.32265913  0.84905813  1
  C  C3963  1  0.96769747  0.34264248  0.80966320  1
  C  C3964  1  0.94260151  0.34743636  0.81209698  1
  H  H3965  1  0.97617244  0.35020506  0.79200864  1
  C  C3966  1  0.98460141  0.27391776  0.81236475  1
  O  O3967  1  0.97042430  0.30290788  0.77287411  1
  H  H3968  1  0.97730513  0.31318490  0.86432772  1
  C  C3969  1  0.92721773  0.36140574  0.79306396  1
  O  O3970  1  0.90751668  0.37180007  0.79843334  1
  O  O3971  1  0.93950518  0.36465662  0.77345816  1
  C  C3972  1  0.92561359  0.31429020  0.87207686  1
  C  C3973  1  0.88516659  0.26523811  0.75224547  1
  C  C3974  1  0.99036301  0.29255865  0.76788382  1
  C  C3975  1  0.99527448  0.25888363  0.83135021  1
  C  C3976  1  0.99883863  0.27638440  0.79113900  1
  Zn  Zn3977  1  0.60853193  0.38223711  0.79073990  1
  O  O3978  1  0.61042190  0.44385196  0.78663381  1
  O  O3979  1  0.59543073  0.39155825  0.75514134  1
  O  O3980  1  0.61517570  0.41480258  0.81440175  1
  C  C3981  1  0.61961499  0.43596803  0.80638447  1
  C  C3982  1  0.51353917  0.47121344  0.75531071  1
  O  O3983  1  0.55931964  0.44369238  0.75007875  1
  H  H3984  1  0.53211855  0.48035695  0.75228130  1
  Zn  Zn3985  1  0.56054005  0.38052548  0.75097242  1
  C  C3986  1  0.51428943  0.44579672  0.75337865  1
  Zn  Zn3987  1  0.59799165  0.42767014  0.75127013  1
  C  C3988  1  0.68559836  0.44057561  0.87086110  1
  C  C3989  1  0.72181837  0.37514802  0.80754331  1
  C  C3990  1  0.70792448  0.37552968  0.75737387  1
  C  C3991  1  0.74039152  0.37578039  0.78902624  1
  C  C3992  1  0.73364608  0.37596616  0.76387959  1
  H  H3993  1  0.63310102  0.48355955  0.80029384  1
  C  C3994  1  0.65974451  0.49018900  0.82996738  1
  H  H3995  1  0.68878099  0.48773737  0.85712746  1
  C  C3996  1  0.63870113  0.45000157  0.82095041  1
  C  C3997  1  0.67400866  0.47696947  0.84756638  1
  C  C3998  1  0.64341357  0.47537891  0.81546895  1
  H  H3999  1  0.64699370  0.41913194  0.84729519  1
  C  C4000  1  0.65090029  0.43786939  0.84022706  1
  C  C4001  1  0.66919036  0.45218183  0.85196580  1
  O  O4002  1  0.75235701  0.37861863  0.83968687  1
  H  H4003  1  0.75967016  0.37717468  0.79485549  1
  H  H4004  1  0.78384472  0.38725608  0.77039237  1
  C  C4005  1  0.77843646  0.38321285  0.75047628  1
  O  O4006  1  0.83075015  0.38824301  0.76136018  1
  O  O4007  1  0.76494864  0.45481012  0.85425455  1
  C  C4008  1  0.78353398  0.44316583  0.84623903  1
  O  O4009  1  0.78605774  0.42042677  0.84961512  1
  H  H4010  1  0.78153562  0.49241902  0.83474543  1
  C  C4011  1  0.81744122  0.49457606  0.81447348  1
  C  C4012  1  0.83983778  0.45650973  0.80640654  1
  C  C4013  1  0.82218369  0.44419306  0.82048092  1
  H  H4014  1  0.82472145  0.42441203  0.82589877  1
  C  C4015  1  0.80238957  0.45712866  0.83109011  1
  C  C4016  1  0.79846983  0.48254520  0.82814509  1
  C  C4017  1  0.83797733  0.48234971  0.80368821  1
  H  H4018  1  0.85291490  0.49363046  0.79516410  1
  C  C4019  1  0.85956124  0.44186748  0.79401822  1
  O  O4020  1  0.86390100  0.42003187  0.79747805  1
  Zn  Zn4021  1  0.87286126  0.38748087  0.77354922  1
  O  O4022  1  0.87187681  0.45353063  0.77734291  1
  O  O4023  1  0.95038678  0.41927946  0.75915911  1
  H  H4024  1  0.99383303  0.42179323  0.76444403  1
  O  O4025  1  0.92799486  0.45275410  0.75384594  1
  C  C4026  1  0.99502425  0.44098528  0.76042166  1
  C  C4027  1  0.97394689  0.47976743  0.75412284  1
  H  H4028  1  0.95631745  0.49050827  0.75321413  1
  C  C4029  1  0.99675553  0.49291890  0.75294595  1
  C  C4030  1  0.97356592  0.45485487  0.75715605  1
  C  C4031  1  0.94838145  0.44223645  0.75626800  1
  H  H4032  1  0.74569163  0.01132030  0.90988377  1
  C  C4033  1  0.74658603  0.01142327  0.93061642  1
  C  C4034  1  0.74744472  0.05667443  0.92901957  1
  O  O4035  1  0.74646121  0.05352823  0.90604828  1
  C  C4036  1  0.74809627  0.03313146  0.94406259  1
  O  O4037  1  0.74532097  0.07803424  0.93814326  1
  H  H4038  1  0.74943019  0.05185478  0.98041141  1
  O  O4039  1  0.75663485  0.11733737  0.88702426  1
  C  C4040  1  0.75276635  0.01204492  0.98287011  1
  C  C4041  1  0.75067066  0.03432611  0.96990211  1
  Zn  Zn4042  1  0.75864162  0.11379203  0.92340048  1
  Zn  Zn4043  1  0.75644000  0.07958152  0.87723270  1
  O  O4044  1  0.79665581  0.12125043  0.93237196  1
  O  O4045  1  0.55946873  0.21894438  0.88568105  1
  Zn  Zn4046  1  0.62452958  0.22590292  0.88215674  1
  H  H4047  1  0.70681712  0.24957705  0.88368180  1
  O  O4048  1  0.74585770  0.17697785  0.89218475  1
  O  O4049  1  0.63047735  0.21917859  0.94521608  1
  O  O4050  1  0.72892994  0.13269601  0.94645689  1
  Zn  Zn4051  1  0.72835726  0.14088206  0.88190803  1
  O  O4052  1  0.70493339  0.13685725  0.91466015  1
  C  C4053  1  0.70981242  0.14158128  0.93643455  1
  H  H4054  1  0.71190110  0.15012898  0.98644343  1
  O  O4055  1  0.64777010  0.20619353  0.91102320  1
  C  C4056  1  0.69846834  0.16192480  0.97705590  1
  C  C4057  1  0.69470204  0.15991519  0.95122833  1
  C  C4058  1  0.64557636  0.20574570  0.93434686  1
  H  H4059  1  0.67982806  0.17642233  0.91621164  1
  C  C4060  1  0.67981135  0.17472804  0.93664151  1
  C  C4061  1  0.66287020  0.18968419  0.94958565  1
  C  C4062  1  0.66260127  0.18937959  0.97545909  1
  C  C4063  1  0.68037321  0.17681456  0.98989462  1
  H  H4064  1  0.64846201  0.19994120  0.98433013  1
  C  C4065  1  0.79454182  0.21921627  0.87518003  1
  O  O4066  1  0.84113543  0.23760622  0.87971347  1
  C  C4067  1  0.77089663  0.20994378  0.87588795  1
  H  H4068  1  0.80850370  0.20506076  0.88106447  1
  O  O4069  1  0.78519757  0.16993184  0.88665824  1
  C  C4070  1  0.76665273  0.18369519  0.88584202  1
  O  O4071  1  0.81779001  0.13123638  0.89932283  1
  C  C4072  1  0.81370001  0.13329729  0.92160150  1
  H  H4073  1  0.81113286  0.14089086  0.96979898  1
  C  C4074  1  0.82629953  0.15386957  0.93606005  1
  C  C4075  1  0.83972397  0.17145719  0.92286999  1
  H  H4076  1  0.84306482  0.17084906  0.90312154  1
  C  C4077  1  0.85125131  0.18894453  0.93828384  1
  C  C4078  1  0.84680223  0.19104816  0.96384775  1
  C  C4079  1  0.82214284  0.15577770  0.96184060  1
  C  C4080  1  0.83378252  0.17323821  0.97780177  1
  H  H4081  1  0.85613876  0.20558049  0.97385502  1
  C  C4082  1  0.87009363  0.20599355  0.92601813  1
  O  O4083  1  0.87488267  0.20291880  0.90363920  1
  O  O4084  1  0.93926674  0.21579620  0.87998979  1
  O  O4085  1  0.87808581  0.22385120  0.93810096  1
  Zn  Zn4086  1  0.56944206  0.25437992  0.90104230  1
  H  H4087  1  0.51697793  0.26251465  0.96101291  1
  C  C4088  1  0.52598252  0.26008990  0.97919455  1
  H  H4089  1  0.50715903  0.31012052  0.87912929  1
  O  O4090  1  0.60628624  0.25366618  0.89714432  1
  O  O4091  1  0.55240893  0.26010719  0.93596240  1
  C  C4092  1  0.55224463  0.26068704  0.98071978  1
  O  O4093  1  0.54798833  0.28822650  0.88883244  1
  O  O4094  1  0.58752196  0.26834193  0.95561143  1
  C  C4095  1  0.56495702  0.26399359  0.95577275  1
  Zn  Zn4096  1  0.61888588  0.25477104  0.93309770  1
  O  O4097  1  0.66005512  0.25036187  0.87682899  1
  O  O4098  1  0.64570465  0.27436738  0.96419793  1
  O  O4099  1  0.65110927  0.28488719  0.92624445  1
  C  C4100  1  0.65453506  0.28876885  0.94815296  1
  H  H4101  1  0.67402007  0.32877956  0.92298435  1
  C  C4102  1  0.66784317  0.31223490  0.95831710  1
  C  C4103  1  0.67652701  0.33128531  0.94370803  1
  C  C4104  1  0.66882018  0.31359783  0.98467797  1
  C  C4105  1  0.68820070  0.35331950  0.98167578  1
  C  C4106  1  0.68722441  0.35198999  0.95579672  1
  O  O4107  1  0.69321420  0.36771739  0.91585395  1
  H  H4108  1  0.69601431  0.36981340  0.99068291  1
  C  C4109  1  0.69697994  0.37138809  0.93832710  1
  H  H4110  1  0.66101773  0.29847386  0.99586630  1
  C  C4111  1  0.67903897  0.33417022  0.99715280  1
  O  O4112  1  0.78589367  0.36977114  0.89926942  1
  H  H4113  1  0.84797047  0.31212649  0.97580110  1
  C  C4114  1  0.83238749  0.32266182  0.94034030  1
  C  C4115  1  0.85171087  0.30620684  0.92776178  1
  C  C4116  1  0.82108221  0.34298008  0.97908649  1
  H  H4117  1  0.81830000  0.33792385  0.90512028  1
  C  C4118  1  0.81821249  0.33806264  0.92580614  1
  C  C4119  1  0.83464124  0.32461108  0.96658518  1
  C  C4120  1  0.80521610  0.35793964  0.96433868  1
  O  O4121  1  0.85216162  0.30661085  0.90467540  1
  C  C4122  1  0.80542211  0.35694018  0.93864131  1
  O  O4123  1  0.86209145  0.29077620  0.94131277  1
  C  C4124  1  0.78903773  0.37268699  0.92283396  1
  H  H4125  1  0.79289681  0.37164260  0.97240242  1
  O  O4126  1  0.93887032  0.30100032  0.88623323  1
  Zn  Zn4127  1  0.93315136  0.25965864  0.88650593  1
  C  C4128  1  0.98812757  0.25870986  0.98951045  1
  H  H4129  1  0.98557589  0.25984126  0.94897136  1
  O  O4130  1  0.90364481  0.31806575  0.87704484  1
  H  H4131  1  0.91983742  0.28488448  0.98931398  1
  C  C4132  1  0.93819907  0.27498867  0.98968679  1
  O  O4133  1  0.91636918  0.28102902  0.94533685  1
  C  C4134  1  0.93790068  0.27312938  0.94382181  1
  C  C4135  1  0.95136033  0.26937691  0.96792335  1
  O  O4136  1  0.94776709  0.26658514  0.92361838  1
  C  C4137  1  0.97626639  0.26131147  0.96670370  1
  O  O4138  1  0.89486604  0.26081382  0.89038737  1
  Zn  Zn4139  1  0.88589737  0.26132679  0.92472736  1
  O  O4140  1  0.68244143  0.41871962  0.87915305  1
  O  O4141  1  0.70129743  0.45439142  0.88054816  1
  Zn  Zn4142  1  0.70679381  0.39105636  0.88535918  1
  Zn  Zn4143  1  0.74056677  0.40712606  0.92827925  1
  Zn  Zn4144  1  0.74191685  0.44540097  0.88269946  1
  O  O4145  1  0.73845911  0.40942050  0.89216868  1
  O  O4146  1  0.70902259  0.38969965  0.94639929  1
  H  H4147  1  0.74365851  0.47073385  0.98504666  1
  O  O4148  1  0.74998512  0.44277939  0.94590478  1
  C  C4149  1  0.75491374  0.46260768  0.93586773  1
  C  C4150  1  0.75031289  0.48669599  0.97572708  1
  C  C4151  1  0.75509638  0.48649340  0.95008178  1
  O  O4152  1  0.77774938  0.38955661  0.93303689  1
  O  O4153  1  0.76202089  0.46326819  0.91287932  1
  Zn  Zn4154  1  0.76592152  0.39427414  0.87526789  1
  O  O4155  1  0.73152025  0.55341529  0.08992263  1
  C  C4156  1  0.73644615  0.55439327  0.06717814  1
  H  H4157  1  0.73467556  0.50819528  0.08723923  1
  O  O4158  1  0.73859551  0.57451896  0.05576414  1
  C  C4159  1  0.74006606  0.50829827  0.06707522  1
  C  C4160  1  0.74006936  0.53005354  0.05418698  1
  C  C4161  1  0.74488757  0.53251127  0.02907705  1
  H  H4162  1  0.74442125  0.54975204  0.01750834  1
  C  C4163  1  0.74847401  0.50987114  0.01677919  1
  Zn  Zn4164  1  0.71655307  0.61632869  0.11968450  1
  O  O4165  1  0.75099673  0.60640268  0.10909667  1
  Zn  Zn4166  1  0.75335326  0.57218601  0.12062697  1
  Zn  Zn4167  1  0.75235639  0.60900434  0.07157112  1
  O  O4168  1  0.78628139  0.62044936  0.05479016  1
  Zn  Zn4169  1  0.62270129  0.72242913  0.11866374  1
  O  O4170  1  0.55739281  0.71741377  0.11929559  1
  Zn  Zn4171  1  0.57570778  0.74950904  0.10170615  1
  C  C4172  1  0.51713828  0.74579543  0.00324622  1
  O  O4173  1  0.63072409  0.71957191  0.05403826  1
  O  O4174  1  0.72547808  0.63021167  0.05328525  1
  O  O4175  1  0.70643809  0.64081100  0.08846309  1
  C  C4176  1  0.70943013  0.64230323  0.06513182  1
  H  H4177  1  0.70686034  0.64490120  0.01356717  1
  H  H4178  1  0.64599524  0.69774875  0.01216784  1
  O  O4179  1  0.64798715  0.70482336  0.08734764  1
  C  C4180  1  0.64579215  0.70512394  0.06428397  1
  C  C4181  1  0.69248451  0.65771277  0.04945282  1
  C  C4182  1  0.69442416  0.65786705  0.02347631  1
  C  C4183  1  0.66050074  0.68784264  0.02214903  1
  C  C4184  1  0.66195430  0.68938183  0.04795568  1
  C  C4185  1  0.67547176  0.67309631  0.06237033  1
  H  H4186  1  0.67423354  0.67268501  0.08292347  1
  C  C4187  1  0.67829161  0.67209802  0.00931546  1
  O  O4188  1  0.74345228  0.62529695  0.00003787  1
  Zn  Zn4189  1  0.77526199  0.62914740  0.12220826  1
  O  O4190  1  0.80270291  0.63034940  0.09076077  1
  C  C4191  1  0.80331055  0.63021927  0.06768111  1
  H  H4192  1  0.76201521  0.65401636  0.03353715  1
  H  H4193  1  0.75845284  0.67057031  0.06585820  1
  H  H4194  1  0.79777737  0.72440098  0.01327977  1
  H  H4195  1  0.80409004  0.63986447  0.02028666  1
  C  C4196  1  0.76619330  0.66862916  0.02006057  1
  C  C4197  1  0.77391178  0.68227080  0.07221545  1
  C  C4198  1  0.77917039  0.69011030  0.02789167  1
  C  C4199  1  0.78659435  0.69595631  0.05422077  1
  C  C4200  1  0.78237139  0.68230416  0.09744130  1
  C  C4201  1  0.80701573  0.71203798  0.05985207  1
  C  C4202  1  0.81306806  0.71384886  0.08504725  1
  C  C4203  1  0.81941452  0.65029270  0.02945547  1
  H  H4204  1  0.83927950  0.66060436  0.08908506  1
  C  C4205  1  0.83853194  0.66147837  0.06841411  1
  C  C4206  1  0.82179564  0.64660426  0.05500798  1
  C  C4207  1  0.85240385  0.68111038  0.03021885  1
  H  H4208  1  0.81633600  0.72390835  0.04596087  1
  C  C4209  1  0.80161590  0.70017197  0.10302108  1
  C  C4210  1  0.83277762  0.73376080  0.09078452  1
  C  C4211  1  0.83593110  0.66564099  0.01594530  1
  C  C4212  1  0.85398166  0.67787162  0.05595390  1
  O  O4213  1  0.84043511  0.73316229  0.11290201  1
  H  H4214  1  0.86559071  0.69432187  0.02066919  1
  O  O4215  1  0.77387969  0.66957523  0.11476706  1
  C  C4216  1  0.78675651  0.70762429  0.00907611  1
  C  C4217  1  0.87236177  0.69512288  0.06904948  1
  O  O4218  1  0.84302997  0.74611975  0.07473217  1
  H  H4219  1  0.80855811  0.70245880  0.12233590  1
  O  O4220  1  0.87625545  0.69294598  0.09168909  1
  O  O4221  1  0.88230728  0.71144026  0.05656433  1
  C  C4222  1  0.95051128  0.74885169  0.01720738  1
  O  O4223  1  0.94383077  0.72275273  0.12025624  1
  Zn  Zn4224  1  0.87958525  0.72331528  0.12456191  1
  C  C4225  1  0.97592719  0.74843198  0.01929074  1
  H  H4226  1  0.51564326  0.75779122  0.04304186  1
  C  C4227  1  0.52717482  0.75443210  0.02560485  1
  Zn  Zn4228  1  0.61774525  0.75610886  0.06220859  1
  O  O4229  1  0.61164619  0.75148427  0.09835515  1
  O  O4230  1  0.55361848  0.76399761  0.06997542  1
  C  C4231  1  0.55219815  0.75982323  0.02514494  1
  C  C4232  1  0.56397169  0.76808962  0.04896468  1
  O  O4233  1  0.58568417  0.77705736  0.04794787  1
  Zn  Zn4234  1  0.62169982  0.78495776  0.11104285  1
  O  O4235  1  0.58788088  0.80379867  0.12184361  1
  C  C4236  1  0.56689404  0.75919509  0.00373747  1
  H  H4237  1  0.58600946  0.76592054  0.00344379  1
  O  O4238  1  0.64252711  0.78171197  0.04681768  1
  O  O4239  1  0.65101442  0.79850569  0.08340642  1
  C  C4240  1  0.65244989  0.79785007  0.06024703  1
  C  C4241  1  0.68724987  0.82923245  0.06054823  1
  C  C4242  1  0.66976655  0.81574376  0.04632568  1
  C  C4243  1  0.66547185  0.81750296  0.02115942  1
  H  H4244  1  0.68885678  0.82503186  0.08041372  1
  C  C4245  1  0.69515597  0.85121076  0.02326026  1
  C  C4246  1  0.69853331  0.84921435  0.04926626  1
  H  H4247  1  0.65169508  0.80580771  0.01177798  1
  C  C4248  1  0.67971744  0.83601918  0.00872795  1
  H  H4249  1  0.70549705  0.86509005  0.01263444  1
  O  O4250  1  0.71602648  0.86370235  0.08649133  1
  C  C4251  1  0.71469661  0.86670164  0.06406305  1
  C  C4252  1  0.84790720  0.82645781  0.06062003  1
  C  C4253  1  0.83109066  0.84067020  0.07431030  1
  H  H4254  1  0.83009046  0.83742584  0.09535147  1
  C  C4255  1  0.83608652  0.84690717  0.02228398  1
  C  C4256  1  0.81825540  0.85898610  0.06259814  1
  C  C4257  1  0.82079967  0.86227730  0.03707200  1
  C  C4258  1  0.84960152  0.82874936  0.03513490  1
  C  C4259  1  0.86477990  0.80841516  0.07319552  1
  H  H4260  1  0.86113963  0.81541923  0.02583133  1
  O  O4261  1  0.86481110  0.80863414  0.09681863  1
  O  O4262  1  0.79779175  0.87045746  0.09957494  1
  O  O4263  1  0.87642999  0.79258658  0.06098623  1
  Zn  Zn4264  1  0.93070215  0.75334928  0.09913192  1
  O  O4265  1  0.94218944  0.76038076  0.06102402  1
  Zn  Zn4266  1  0.88365444  0.75196191  0.06712884  1
  O  O4267  1  0.89216099  0.75201428  0.10205614  1
  H  H4268  1  0.98303867  0.75048396  0.03956113  1
  O  O4269  1  0.91193333  0.75173952  0.03634489  1
  C  C4270  1  0.93464557  0.75404260  0.03965555  1
  Zn  Zn4271  1  0.88503258  0.78279526  0.12151748  1
  O  O4272  1  0.95041711  0.78528095  0.11203780  1
  O  O4273  1  0.91691709  0.80498150  0.12304657  1
  O  O4274  1  0.72905563  0.88057048  0.05204274  1
  Zn  Zn4275  1  0.71813027  0.89542559  0.11284046  1
  O  O4276  1  0.74940081  0.91110704  0.10440522  1
  C  C4277  1  0.80165283  0.87587842  0.07726028  1
  H  H4278  1  0.81014017  0.87717359  0.02826951  1
  Zn  Zn4279  1  0.75419104  0.90697343  0.06562925  1
  H  H4280  1  0.75342375  0.97063738  0.01536109  1
  Zn  Zn4281  1  0.75739935  0.94327176  0.11754328  1
  C  C4282  1  0.75701610  0.98871162  0.02467483  1
  O  O4283  1  0.75999063  0.94416240  0.05234978  1
  O  O4284  1  0.79205190  0.89424033  0.06681677  1
  C  C4285  1  0.76380036  0.96418203  0.06323758  1
  O  O4286  1  0.77032447  0.96673224  0.08545670  1
  C  C4287  1  0.76112322  0.98880598  0.05057027  1
  O  O4288  1  0.61881903  0.55218131  0.22384496  1
  Zn  Zn4289  1  0.62200972  0.62390833  0.22927203  1
  H  H4290  1  0.54250869  0.51376499  0.24798349  1
  Zn  Zn4291  1  0.56392716  0.61263282  0.24855764  1
  O  O4292  1  0.62755163  0.58851468  0.20838439  1
  C  C4293  1  0.63187547  0.56629936  0.20980994  1
  O  O4294  1  0.72348068  0.55798847  0.14457974  1
  H  H4295  1  0.64265979  0.51914045  0.20983477  1
  O  O4296  1  0.69934025  0.59030427  0.14382776  1
  C  C4297  1  0.67219638  0.51564046  0.18469576  1
  H  H4298  1  0.70734316  0.51943417  0.16470858  1
  C  C4299  1  0.70432783  0.56871209  0.15132998  1
  C  C4300  1  0.65381684  0.52930625  0.19659064  1
  C  C4301  1  0.65254238  0.55499663  0.19463083  1
  C  C4302  1  0.69024215  0.52914737  0.17162572  1
  C  C4303  1  0.66844494  0.56810865  0.17857161  1
  H  H4304  1  0.66738556  0.58876988  0.17655989  1
  C  C4305  1  0.68720973  0.55467157  0.16724887  1
  O  O4306  1  0.79164586  0.56693995  0.12898603  1
  O  O4307  1  0.80514111  0.60207373  0.14233716  1
  C  C4308  1  0.80565809  0.57932526  0.14267208  1
  H  H4309  1  0.81056492  0.53184463  0.14446292  1
  C  C4310  1  0.84194533  0.52700363  0.17108634  1
  C  C4311  1  0.82428995  0.56524582  0.15840877  1
  C  C4312  1  0.84140080  0.57811733  0.17382780  1
  H  H4313  1  0.84031370  0.59754944  0.17579528  1
  C  C4314  1  0.86007129  0.56496095  0.18658422  1
  C  C4315  1  0.82461457  0.54023198  0.15656717  1
  C  C4316  1  0.86028309  0.53927465  0.18632011  1
  H  H4317  1  0.87249007  0.52930379  0.19892208  1
  O  O4318  1  0.84584400  0.62199955  0.24531942  1
  H  H4319  1  0.79778307  0.62170132  0.23161125  1
  C  C4320  1  0.87867136  0.57814411  0.20146187  1
  O  O4321  1  0.87693851  0.60112407  0.20178457  1
  O  O4322  1  0.89389728  0.56635025  0.21508427  1
  C  C4323  1  0.98229240  0.52582851  0.24746934  1
  H  H4324  1  0.96382612  0.51841401  0.24370749  1
  C  C4325  1  0.98401116  0.55149413  0.24951668  1
  C  C4326  1  0.95897447  0.56462489  0.24967334  1
  O  O4327  1  0.96155830  0.58737726  0.24659266  1
  O  O4328  1  0.56009070  0.62582110  0.21217552  1
  O  O4329  1  0.59264540  0.69916163  0.12580006  1
  C  C4330  1  0.56954162  0.70116244  0.12971267  1
  H  H4331  1  0.52243997  0.69697164  0.13639110  1
  O  O4332  1  0.59702850  0.63560343  0.19717070  1
  H  H4333  1  0.52412767  0.64386896  0.19744068  1
  C  C4334  1  0.57395025  0.63720274  0.19773867  1
  C  C4335  1  0.51877233  0.66996001  0.16715212  1
  C  C4336  1  0.53402686  0.65592693  0.18377870  1
  C  C4337  1  0.53243847  0.68539313  0.15068308  1
  C  C4338  1  0.56015539  0.65558183  0.18171702  1
  C  C4339  1  0.57345323  0.67070121  0.16574531  1
  H  H4340  1  0.59386882  0.66933145  0.16333763  1
  C  C4341  1  0.55831152  0.68531202  0.15025626  1
  H  H4342  1  0.62125938  0.70826318  0.22954094  1
  C  C4343  1  0.62060990  0.71381318  0.24929387  1
  O  O4344  1  0.61897652  0.66310442  0.24169277  1
  C  C4345  1  0.72165359  0.62827999  0.24408429  1
  C  C4346  1  0.67504124  0.63056008  0.23445031  1
  O  O4347  1  0.66014600  0.63499859  0.21672297  1
  C  C4348  1  0.70389292  0.63218411  0.22664900  1
  C  C4349  1  0.74749240  0.62927315  0.23842562  1
  C  C4350  1  0.62542561  0.74678687  0.20869714  1
  C  C4351  1  0.70907258  0.63531690  0.20172917  1
  C  C4352  1  0.73453447  0.63614307  0.19558182  1
  H  H4353  1  0.62954647  0.72767540  0.20516852  1
  H  H4354  1  0.69382225  0.63709415  0.18883897  1
  O  O4355  1  0.63400436  0.73590836  0.15524931  1
  O  O4356  1  0.72272505  0.64010905  0.15379899  1
  C  C4357  1  0.74080003  0.63969402  0.16848388  1
  C  C4358  1  0.75329183  0.63349182  0.21343109  1
  H  H4359  1  0.77310549  0.63476663  0.20860278  1
  O  O4360  1  0.76280413  0.63843954  0.16092112  1
  H  H4361  1  0.88644252  0.71095084  0.23728876  1
  O  O4362  1  0.88160529  0.74084678  0.16616453  1
  O  O4363  1  0.88646186  0.66708584  0.24737748  1
  Zn  Zn4364  1  0.88465554  0.62892645  0.23159073  1
  H  H4365  1  0.88677008  0.73757358  0.21347058  1
  O  O4366  1  0.95054504  0.63983838  0.22394796  1
  O  O4367  1  0.91266183  0.70486434  0.13906763  1
  C  C4368  1  0.93511327  0.70881529  0.13636487  1
  H  H4369  1  0.98597589  0.70509735  0.13985199  1
  H  H4370  1  0.98440899  0.65594747  0.20328986  1
  O  O4371  1  0.91527191  0.64496640  0.20480559  1
  C  C4372  1  0.93752368  0.64944125  0.20679819  1
  C  C4373  1  0.99006710  0.68054409  0.17142039  1
  C  C4374  1  0.97683167  0.69565595  0.15426548  1
  C  C4375  1  0.95060614  0.69363990  0.15453672  1
  C  C4376  1  0.93635065  0.67824400  0.16946494  1
  H  H4377  1  0.91577932  0.67608135  0.16755096  1
  C  C4378  1  0.94988836  0.66580082  0.18745742  1
  C  C4379  1  0.97487089  0.66770194  0.18901946  1
  O  O4380  1  0.55983745  0.77536465  0.12903378  1
  C  C4381  1  0.56822058  0.79663146  0.13191283  1
  H  H4382  1  0.52044694  0.79439671  0.14608512  1
  C  C4383  1  0.55419050  0.81666829  0.14493627  1
  C  C4384  1  0.51785720  0.83110628  0.16553123  1
  C  C4385  1  0.52947502  0.81247803  0.15137089  1
  H  H4386  1  0.58847722  0.84003791  0.14634333  1
  C  C4387  1  0.56798100  0.83788197  0.15173599  1
  C  C4388  1  0.55543531  0.85412298  0.16728444  1
  C  C4389  1  0.53045191  0.85188542  0.17444104  1
  H  H4390  1  0.52256744  0.86574312  0.18691242  1
  O  O4391  1  0.61506565  0.83938340  0.20452356  1
  C  C4392  1  0.61312698  0.82561124  0.22256957  1
  C  C4393  1  0.61635767  0.78091312  0.23834566  1
  C  C4394  1  0.61821540  0.79788879  0.21947680  1
  C  C4395  1  0.62026781  0.75542385  0.23309796  1
  O  O4396  1  0.60770993  0.83281286  0.24362611  1
  C  C4397  1  0.62307471  0.78881238  0.19567650  1
  H  H4398  1  0.62030838  0.80325857  0.18199363  1
  C  C4399  1  0.62669623  0.76375308  0.18969255  1
  C  C4400  1  0.63117111  0.75755809  0.16304754  1
  O  O4401  1  0.63317998  0.77526446  0.14799892  1
  O  O4402  1  0.72460753  0.87274807  0.14966589  1
  H  H4403  1  0.68944275  0.87264034  0.18183965  1
  O  O4404  1  0.65608495  0.87288219  0.20545122  1
  C  C4405  1  0.66778789  0.87457286  0.22589549  1
  O  O4406  1  0.65887576  0.87392743  0.24694010  1
  C  C4407  1  0.87224537  0.83069645  0.23692727  1
  C  C4408  1  0.87270717  0.79611489  0.20489334  1
  H  H4409  1  0.86926174  0.81005162  0.18950378  1
  C  C4410  1  0.87482327  0.80394355  0.22977061  1
  O  O4411  1  0.86746279  0.84608142  0.21977581  1
  O  O4412  1  0.87008567  0.77789659  0.15661503  1
  C  C4413  1  0.87644233  0.76207420  0.17285632  1
  C  C4414  1  0.87665307  0.77191150  0.19881057  1
  C  C4415  1  0.88485223  0.76256843  0.24380283  1
  C  C4416  1  0.88494239  0.75619842  0.21766321  1
  C  C4417  1  0.87998767  0.78738939  0.24899167  1
  C  C4418  1  0.93933530  0.80097281  0.12558663  1
  O  O4419  1  0.95282417  0.86719591  0.21581834  1
  H  H4420  1  0.98995373  0.79606516  0.13634161  1
  O  O4421  1  0.91916074  0.86402659  0.19204439  1
  H  H4422  1  0.98992560  0.85282206  0.19630835  1
  C  C4423  1  0.99390343  0.82638464  0.16389276  1
  C  C4424  1  0.94136980  0.85975528  0.19642835  1
  C  C4425  1  0.98089880  0.81022118  0.14705229  1
  C  C4426  1  0.95537884  0.81443690  0.14438693  1
  C  C4427  1  0.94241582  0.83252573  0.15776407  1
  H  H4428  1  0.92326715  0.83658968  0.15345434  1
  C  C4429  1  0.95522333  0.84378955  0.17817779  1
  C  C4430  1  0.98089535  0.84194107  0.18072605  1
  C  C4431  1  0.50087118  0.99286650  0.23900816  1
  C  C4432  1  0.56876493  0.87717016  0.17716205  1
  O  O4433  1  0.58996618  0.88237231  0.16968694  1
  O  O4434  1  0.55752225  0.88638089  0.19565377  1
  Zn  Zn4435  1  0.61718943  0.88058301  0.19995311  1
  O  O4436  1  0.59990731  0.89137585  0.23423246  1
  Zn  Zn4437  1  0.56366214  0.88304457  0.23354828  1
  O  O4438  1  0.62086026  0.94924104  0.21664085  1
  Zn  Zn4439  1  0.59664323  0.92540790  0.24287115  1
  O  O4440  1  0.56098918  0.94468931  0.24373320  1
  C  C4441  1  0.52180927  0.97799183  0.23895654  1
  C  C4442  1  0.51791729  0.95314050  0.23432870  1
  O  O4443  1  0.53650693  0.91374819  0.23443222  1
  C  C4444  1  0.54035652  0.93624162  0.23687096  1
  H  H4445  1  0.54097467  0.98404650  0.24439933  1
  O  O4446  1  0.71622605  0.95302104  0.12569660  1
  C  C4447  1  0.73863843  0.87674985  0.16733192  1
  C  C4448  1  0.70330902  0.87636203  0.19620791  1
  C  C4449  1  0.69577829  0.87586411  0.22146216  1
  C  C4450  1  0.72903402  0.87787034  0.19386975  1
  C  C4451  1  0.71187371  0.87761464  0.24173853  1
  O  O4452  1  0.62650419  0.92012731  0.18835444  1
  C  C4453  1  0.63036446  0.94070227  0.19708107  1
  O  O4454  1  0.69434635  0.91940527  0.13338090  1
  C  C4455  1  0.73795958  0.87877319  0.23858834  1
  H  H4456  1  0.64115540  0.99243307  0.19911062  1
  C  C4457  1  0.69879176  0.94156912  0.13562092  1
  C  C4458  1  0.66869338  0.99562440  0.16946521  1
  H  H4459  1  0.69788311  0.98992501  0.14221575  1
  H  H4460  1  0.65866765  0.92466381  0.16098671  1
  C  C4461  1  0.68398947  0.98108229  0.15327131  1
  C  C4462  1  0.68053934  0.95615072  0.15176481  1
  C  C4463  1  0.66152467  0.94378309  0.16418943  1
  C  C4464  1  0.65217424  0.98236860  0.18531752  1
  C  C4465  1  0.64798574  0.95732792  0.18227690  1
  C  C4466  1  0.74659814  0.87817866  0.21339680  1
  C  C4467  1  0.87416396  0.93415278  0.20538219  1
  C  C4468  1  0.85724942  0.97666648  0.19286758  1
  C  C4469  1  0.83963671  0.98901060  0.17833289  1
  O  O4470  1  0.76140588  0.88015410  0.16461587  1
  O  O4471  1  0.87135066  0.91164047  0.20280107  1
  O  O4472  1  0.80156721  0.91609600  0.14821402  1
  Zn  Zn4473  1  0.77579903  0.89166530  0.12649897  1
  O  O4474  1  0.78574249  0.95321363  0.14221781  1
  H  H4475  1  0.76765826  0.87590519  0.21084259  1
  C  C4476  1  0.80140476  0.93880328  0.15100006  1
  H  H4477  1  0.80709631  0.98803222  0.15428416  1
  C  C4478  1  0.83755994  0.93874223  0.17922248  1
  C  C4479  1  0.82096199  0.95264073  0.16526444  1
  H  H4480  1  0.83624247  0.91879036  0.18027409  1
  H  H4481  1  0.87030049  0.98512930  0.20432964  1
  C  C4482  1  0.82024862  0.97768199  0.16448873  1
  C  C4483  1  0.85685487  0.95101729  0.19209445  1
  Zn  Zn4484  1  0.88991031  0.87823315  0.21584046  1
  O  O4485  1  0.89066232  0.94295165  0.22008212  1
  O  O4486  1  0.90538050  0.88614945  0.24872049  1
  O  O4487  1  0.60530576  0.56400635  0.29727176  1
  C  C4488  1  0.52100023  0.54589184  0.26024947  1
  C  C4489  1  0.54572337  0.56002785  0.26167303  1
  O  O4490  1  0.54496558  0.58168121  0.26900130  1
  Zn  Zn4491  1  0.60314470  0.61908711  0.28832062  1
  C  C4492  1  0.52375853  0.52076521  0.25380105  1
  O  O4493  1  0.56560434  0.54905483  0.25790210  1
  C  C4494  1  0.50106694  0.50704597  0.25181176  1
  O  O4495  1  0.59856119  0.60508873  0.25419216  1
  Zn  Zn4496  1  0.60261772  0.56703473  0.25647492  1
  C  C4497  1  0.62291233  0.57351709  0.30940215  1
  O  O4498  1  0.62511682  0.59626585  0.31126407  1
  H  H4499  1  0.62600002  0.52724676  0.31267663  1
  C  C4500  1  0.64231225  0.53343578  0.32085946  1
  C  C4501  1  0.68415127  0.55862168  0.34007287  1
  C  C4502  1  0.68266320  0.53302884  0.33941657  1
  C  C4503  1  0.66330469  0.57281336  0.33224097  1
  C  C4504  1  0.64375282  0.55926822  0.32286261  1
  H  H4505  1  0.66339631  0.59318044  0.33078639  1
  C  C4506  1  0.70771664  0.57107597  0.34660316  1
  H  H4507  1  0.69949369  0.52348996  0.34593087  1
  C  C4508  1  0.66155537  0.51962407  0.33040306  1
  O  O4509  1  0.70675960  0.59345489  0.35258116  1
  O  O4510  1  0.72752965  0.55865679  0.34851961  1
  H  H4511  1  0.71407292  0.62481372  0.26338436  1
  O  O4512  1  0.66904123  0.62433562  0.25477495  1
  C  C4513  1  0.82527907  0.54548148  0.34127144  1
  C  C4514  1  0.84623499  0.55630883  0.33082677  1
  C  C4515  1  0.82208089  0.52018426  0.33919588  1
  H  H4516  1  0.85033444  0.57619985  0.33339632  1
  C  C4517  1  0.85661260  0.51745614  0.30897947  1
  C  C4518  1  0.86037723  0.54166106  0.31451343  1
  H  H4519  1  0.80609821  0.51160600  0.34932822  1
  C  C4520  1  0.80683952  0.56141910  0.35598023  1
  C  C4521  1  0.83750053  0.50559689  0.32449804  1
  O  O4522  1  0.81063497  0.58380371  0.35978671  1
  C  C4523  1  0.83722104  0.62299345  0.26658766  1
  C  C4524  1  0.80937446  0.62399131  0.26971262  1
  O  O4525  1  0.84872729  0.61852725  0.28602061  1
  H  H4526  1  0.86878662  0.50751669  0.29729506  1
  O  O4527  1  0.78805817  0.54995189  0.36302005  1
  C  C4528  1  0.79181801  0.62298514  0.25062383  1
  C  C4529  1  0.88073890  0.55608655  0.30096194  1
  O  O4530  1  0.88576967  0.57769646  0.30808608  1
  O  O4531  1  0.89154038  0.54650016  0.28311986  1
  Zn  Zn4532  1  0.89011953  0.61590820  0.29043994  1
  O  O4533  1  0.90238044  0.60791169  0.25705932  1
  Zn  Zn4534  1  0.93701159  0.61920958  0.25452443  1
  Zn  Zn4535  1  0.90423747  0.57297684  0.25287048  1
  O  O4536  1  0.92076604  0.62348406  0.31843354  1
  O  O4537  1  0.95315454  0.61716306  0.29441929  1
  O  O4538  1  0.93844758  0.55435451  0.25160072  1
  O  O4539  1  0.54587153  0.64034705  0.27534987  1
  H  H4540  1  0.50424165  0.65838168  0.28988616  1
  O  O4541  1  0.57298951  0.63996785  0.30631138  1
  C  C4542  1  0.55333054  0.64737130  0.29619097  1
  H  H4543  1  0.56924383  0.67107880  0.33495319  1
  C  C4544  1  0.53529799  0.68982464  0.34773117  1
  C  C4545  1  0.54961397  0.67510382  0.33184619  1
  C  C4546  1  0.53787459  0.66366140  0.31169807  1
  C  C4547  1  0.51278450  0.66621813  0.30637901  1
  C  C4548  1  0.51010600  0.69422405  0.34262419  1
  C  C4549  1  0.55052729  0.70335853  0.36679391  1
  C  C4550  1  0.61472446  0.73631039  0.32498809  1
  C  C4551  1  0.61714337  0.72924933  0.29793624  1
  C  C4552  1  0.61896885  0.74765844  0.28030066  1
  O  O4553  1  0.57206290  0.69483561  0.37236036  1
  C  C4554  1  0.61906027  0.70437283  0.29337724  1
  C  C4555  1  0.62166710  0.69662404  0.26822761  1
  H  H4556  1  0.61668319  0.68994883  0.30874968  1
  O  O4557  1  0.61638214  0.71832802  0.34010543  1
  C  C4558  1  0.62043875  0.73901090  0.25534074  1
  C  C4559  1  0.62147240  0.66948568  0.26409135  1
  O  O4560  1  0.61977155  0.65665677  0.28277788  1
  O  O4561  1  0.74685254  0.63373681  0.33584957  1
  H  H4562  1  0.74030525  0.63752234  0.28742737  1
  H  H4563  1  0.71163339  0.73340367  0.37476420  1
  C  C4564  1  0.76687689  0.62740322  0.25830239  1
  H  H4565  1  0.81662165  0.62721499  0.30808388  1
  C  C4566  1  0.80146032  0.62583789  0.29469052  1
  C  C4567  1  0.77664479  0.62885320  0.30192621  1
  C  C4568  1  0.75882524  0.63237174  0.28298640  1
  O  O4569  1  0.78495071  0.63208014  0.34538786  1
  C  C4570  1  0.76842188  0.63272115  0.32915130  1
  C  C4571  1  0.88755663  0.71781179  0.25669324  1
  C  C4572  1  0.88843055  0.67233818  0.27000147  1
  O  O4573  1  0.88825931  0.65669272  0.28744304  1
  C  C4574  1  0.88669381  0.74286438  0.26285328  1
  C  C4575  1  0.88601899  0.74937960  0.28866237  1
  C  C4576  1  0.94330153  0.62739196  0.31310042  1
  C  C4577  1  0.88903784  0.69899655  0.27472695  1
  C  C4578  1  0.89065597  0.70552289  0.29999566  1
  C  C4579  1  0.88904251  0.73090442  0.30631514  1
  H  H4580  1  0.89489586  0.69214789  0.31547751  1
  C  C4581  1  0.88884391  0.73455648  0.33394319  1
  O  O4582  1  0.89108048  0.71612025  0.34791507  1
  H  H4583  1  0.99200580  0.64179100  0.30920653  1
  C  C4584  1  0.99338858  0.66822474  0.33902886  1
  C  C4585  1  0.98094939  0.65066739  0.32375711  1
  C  C4586  1  0.95542220  0.64733637  0.32737935  1
  C  C4587  1  0.94266510  0.66023793  0.34617522  1
  H  H4588  1  0.92253858  0.65536265  0.34987009  1
  C  C4589  1  0.98080436  0.68234029  0.35701058  1
  C  C4590  1  0.95545352  0.67776857  0.35986619  1
  H  H4591  1  0.98979707  0.69664691  0.36872165  1
  H  H4592  1  0.52296636  0.85242249  0.29196849  1
  C  C4593  1  0.51908080  0.82914766  0.32448147  1
  C  C4594  1  0.53148446  0.81610941  0.34295601  1
  C  C4595  1  0.55752009  0.81543357  0.34215198  1
  C  C4596  1  0.57169694  0.82748194  0.32401852  1
  H  H4597  1  0.59225183  0.82724590  0.32577413  1
  C  C4598  1  0.55807025  0.84124340  0.30643791  1
  C  C4599  1  0.53232697  0.84152056  0.30548917  1
  C  C4600  1  0.57087168  0.85685361  0.28660488  1
  O  O4601  1  0.59365486  0.85659407  0.28631150  1
  H  H4602  1  0.52245322  0.80465991  0.35603207  1
  C  C4603  1  0.57046876  0.79932685  0.36079329  1
  O  O4604  1  0.59348417  0.80193240  0.36273512  1
  O  O4605  1  0.55801879  0.86703786  0.26983785  1
  H  H4606  1  0.61835118  0.76697811  0.28526109  1
  O  O4607  1  0.61272421  0.75800878  0.33183491  1
  Zn  Zn4608  1  0.61901210  0.87003726  0.25798794  1
  H  H4609  1  0.61027815  0.78902500  0.25641053  1
  Zn  Zn4610  1  0.62162992  0.77462726  0.36962164  1
  C  C4611  1  0.71868369  0.75231076  0.37168179  1
  O  O4612  1  0.72557183  0.84125888  0.35356578  1
  C  C4613  1  0.74303716  0.82654234  0.36014038  1
  O  O4614  1  0.65850422  0.78115100  0.35776204  1
  H  H4615  1  0.69718365  0.81010851  0.35776148  1
  C  C4616  1  0.71014020  0.79496443  0.36061941  1
  C  C4617  1  0.67342021  0.76591679  0.36741119  1
  C  C4618  1  0.70230463  0.77123147  0.36678451  1
  C  C4619  1  0.73540676  0.80026104  0.36122469  1
  C  C4620  1  0.74427922  0.75841480  0.37269253  1
  Zn  Zn4621  1  0.72016932  0.87365530  0.37479905  1
  C  C4622  1  0.75345072  0.78246125  0.36746346  1
  H  H4623  1  0.77454183  0.84969093  0.26799775  1
  O  O4624  1  0.79897024  0.83585374  0.29932616  1
  C  C4625  1  0.79474258  0.85421650  0.31159640  1
  O  O4626  1  0.80529223  0.85820291  0.33192476  1
  O  O4627  1  0.76427733  0.83258700  0.36522154  1
  C  C4628  1  0.76636658  0.86584521  0.27753897  1
  Zn  Zn4629  1  0.78576976  0.86990362  0.36896522  1
  H  H4630  1  0.77384256  0.78689239  0.36773577  1
  H  H4631  1  0.79313088  0.76016926  0.37290649  1
  C  C4632  1  0.77629613  0.87272552  0.30024016  1
  H  H4633  1  0.88027565  0.79369486  0.26857120  1
  O  O4634  1  0.87790755  0.83729519  0.25815738  1
  H  H4635  1  0.88482267  0.76863282  0.29591909  1
  Zn  Zn4636  1  0.88655177  0.87219560  0.27698000  1
  O  O4637  1  0.88616311  0.75593428  0.34208155  1
  C  C4638  1  0.98384388  0.81245814  0.33422886  1
  C  C4639  1  0.94339670  0.82679882  0.31967019  1
  C  C4640  1  0.93143679  0.81611699  0.33971572  1
  H  H4641  1  0.91180424  0.81697612  0.34267602  1
  C  C4642  1  0.96917445  0.82527378  0.31659865  1
  C  C4643  1  0.94601024  0.80168592  0.35574268  1
  H  H4644  1  0.97961808  0.83483696  0.30134944  1
  O  O4645  1  0.90810811  0.85070184  0.30345347  1
  C  C4646  1  0.97112263  0.79959541  0.35350076  1
  C  C4647  1  0.92975895  0.84202386  0.30049718  1
  O  O4648  1  0.94299068  0.84913466  0.28251955  1
  H  H4649  1  0.98186573  0.78684360  0.36561370  1
  Zn  Zn4650  1  0.93958656  0.87398544  0.25313124  1
  H  H4651  1  0.62252462  0.99836000  0.29974387  1
  O  O4652  1  0.61191563  0.93077482  0.28076966  1
  H  H4653  1  0.70271356  0.87697105  0.25928795  1
  O  O4654  1  0.63110582  0.89483827  0.28877412  1
  C  C4655  1  0.65193210  0.99688868  0.32893197  1
  H  H4656  1  0.62639815  0.96457775  0.29869323  1
  C  C4657  1  0.62583177  0.91733665  0.29275447  1
  C  C4658  1  0.65378860  0.96931268  0.32982951  1
  C  C4659  1  0.64137699  0.93060576  0.31188839  1
  C  C4660  1  0.63952431  0.95622753  0.31242072  1
  C  C4661  1  0.67200903  0.93160549  0.34185621  1
  C  C4662  1  0.65698518  0.91690292  0.32668440  1
  H  H4663  1  0.66024093  0.89653289  0.32335579  1
  C  C4664  1  0.67072127  0.95676130  0.34528097  1
  C  C4665  1  0.69237020  0.91718149  0.35536238  1
  H  H4666  1  0.68186554  0.96789760  0.35817176  1
  O  O4667  1  0.69242809  0.89399531  0.35412235  1
  H  H4668  1  0.72977925  0.91679199  0.26622270  1
  O  O4669  1  0.73055222  0.94543392  0.30394245  1
  O  O4670  1  0.70793392  0.92882518  0.36760893  1
  C  C4671  1  0.74311151  0.90434521  0.27613708  1
  Zn  Zn4672  1  0.74984466  0.92406642  0.37260233  1
  C  C4673  1  0.74673011  0.93346691  0.31369406  1
  O  O4674  1  0.75622942  0.93931610  0.33493065  1
  C  C4675  1  0.75049352  0.88274399  0.26457378  1
  C  C4676  1  0.75375908  0.91056116  0.30006415  1
  C  C4677  1  0.77048844  0.89486923  0.31211822  1
  H  H4678  1  0.77890854  0.89991734  0.32952747  1
  C  C4679  1  0.80477419  0.92229143  0.36264010  1
  H  H4680  1  0.80200139  0.97160299  0.35493958  1
  C  C4681  1  0.82523797  0.97514700  0.32130486  1
  C  C4682  1  0.83956969  0.96396639  0.30268079  1
  C  C4683  1  0.81201781  0.96202765  0.34006500  1
  C  C4684  1  0.81524746  0.93653193  0.34126053  1
  C  C4685  1  0.82873594  0.92470540  0.32203648  1
  H  H4686  1  0.82935087  0.90415581  0.32454999  1
  C  C4687  1  0.84189573  0.93800812  0.30525218  1
  H  H4688  1  0.84785922  0.97534092  0.28762497  1
  C  C4689  1  0.86119005  0.92584874  0.28893886  1
  O  O4690  1  0.86296108  0.90264951  0.28979679  1
  O  O4691  1  0.80915483  0.89947199  0.36487203  1
  O  O4692  1  0.87658908  0.93868772  0.27751690  1
  C  C4693  1  0.98132290  0.94037314  0.26711381  1
  C  C4694  1  0.95697522  0.92610499  0.27098890  1
  O  O4695  1  0.95735736  0.90372802  0.27580965  1
  C  C4696  1  0.97923297  0.96506420  0.26057075  1
  Zn  Zn4697  1  0.90416967  0.92247449  0.25230008  1
  O  O4698  1  0.93758883  0.93853986  0.27050733  1
  H  H4699  1  0.95950442  0.97328765  0.26057778  1
  Zn  Zn4700  1  0.72881631  0.62140864  0.37521947  1
  O  O4701  1  0.71334819  0.61562809  0.43831227  1
  O  O4702  1  0.74366770  0.53779418  0.40576243  1
  C  C4703  1  0.74641677  0.53920139  0.42871740  1
  O  O4704  1  0.74445324  0.55912536  0.44022299  1
  Zn  Zn4705  1  0.74626584  0.59721169  0.42441057  1
  C  C4706  1  0.75193781  0.51585164  0.44296113  1
  H  H4707  1  0.75450566  0.53482796  0.47821116  1
  C  C4708  1  0.75532434  0.51732064  0.46808449  1
  O  O4709  1  0.75271604  0.59965935  0.38962410  1
  Zn  Zn4710  1  0.75497445  0.56774466  0.37575905  1
  Zn  Zn4711  1  0.78774670  0.61192141  0.38023884  1
  O  O4712  1  0.77730798  0.60880407  0.44871433  1
  O  O4713  1  0.80488439  0.60820000  0.41861413  1
  C  C4714  1  0.79646407  0.61715300  0.43799820  1
  O  O4715  1  0.54030399  0.72097827  0.37755808  1
  Zn  Zn4716  1  0.60588586  0.71547332  0.37905215  1
  Zn  Zn4717  1  0.61014820  0.74505910  0.42467598  1
  C  C4718  1  0.50319461  0.74581348  0.49341677  1
  C  C4719  1  0.51854737  0.74756591  0.47137073  1
  O  O4720  1  0.54828287  0.74423665  0.42808689  1
  O  O4721  1  0.62213946  0.71037176  0.43372667  1
  O  O4722  1  0.60016782  0.74979708  0.38836566  1
  H  H4723  1  0.51268452  0.74659408  0.45167574  1
  H  H4724  1  0.73210644  0.70829486  0.38083992  1
  O  O4725  1  0.74109777  0.66053052  0.38751582  1
  O  O4726  1  0.66592012  0.74653712  0.37548381  1
  O  O4727  1  0.69823075  0.62693106  0.40112226  1
  C  C4728  1  0.69940930  0.62862292  0.42463410  1
  H  H4729  1  0.69395901  0.63234937  0.47287266  1
  O  O4730  1  0.63205080  0.69161007  0.39944710  1
  H  H4731  1  0.63305875  0.68500260  0.47175515  1
  C  C4732  1  0.63340087  0.69267628  0.42268363  1
  C  C4733  1  0.68205004  0.64631227  0.46372211  1
  C  C4734  1  0.65079072  0.67655526  0.43677610  1
  C  C4735  1  0.66760855  0.66180566  0.42342573  1
  H  H4736  1  0.66684078  0.66124049  0.40283069  1
  C  C4737  1  0.68318425  0.64623870  0.43747839  1
  C  C4738  1  0.64788729  0.67489913  0.46287358  1
  C  C4739  1  0.66446352  0.66030240  0.47690349  1
  C  C4740  1  0.75185709  0.71207596  0.38094232  1
  C  C4741  1  0.79570232  0.69882888  0.38398000  1
  H  H4742  1  0.80905279  0.68411999  0.38666681  1
  C  C4743  1  0.78648418  0.74192445  0.37795961  1
  C  C4744  1  0.76070620  0.73613209  0.37736190  1
  C  C4745  1  0.80367587  0.72344735  0.38295440  1
  O  O4746  1  0.84047932  0.74806794  0.37864514  1
  C  C4747  1  0.76297063  0.66767157  0.38725444  1
  O  O4748  1  0.78043864  0.65298809  0.39061369  1
  H  H4749  1  0.78826132  0.63399967  0.48637473  1
  O  O4750  1  0.84444587  0.70847342  0.38190215  1
  C  C4751  1  0.83150396  0.72760715  0.38105719  1
  C  C4752  1  0.77010235  0.69456952  0.38420793  1
  C  C4753  1  0.80999459  0.63762274  0.45184067  1
  C  C4754  1  0.80318261  0.64423200  0.47554919  1
  H  H4755  1  0.83172344  0.64740595  0.41891518  1
  C  C4756  1  0.82848839  0.65070114  0.43869394  1
  C  C4757  1  0.84366905  0.66839981  0.45109207  1
  C  C4758  1  0.83946783  0.67253527  0.47620066  1
  C  C4759  1  0.81754535  0.66261656  0.48701087  1
  H  H4760  1  0.85199301  0.68522027  0.48698420  1
  C  C4761  1  0.86422151  0.68253683  0.43778209  1
  O  O4762  1  0.86992703  0.67929494  0.41586637  1
  O  O4763  1  0.87541384  0.69804434  0.45078723  1
  C  C4764  1  0.94099966  0.69286309  0.37927265  1
  Zn  Zn4765  1  0.88269077  0.73566301  0.43808277  1
  O  O4766  1  0.92031986  0.68293691  0.38462077  1
  O  O4767  1  0.94927117  0.71226016  0.38808779  1
  Zn  Zn4768  1  0.88378394  0.70624520  0.38676821  1
  O  O4769  1  0.89537150  0.73745374  0.40407117  1
  Zn  Zn4770  1  0.93231129  0.74349692  0.41000547  1
  C  C4771  1  0.94700334  0.73999182  0.49263553  1
  H  H4772  1  0.97919947  0.74364042  0.47079598  1
  C  C4773  1  0.97264343  0.74124860  0.49084791  1
  C  C4774  1  0.93342721  0.74296530  0.46802645  1
  O  O4775  1  0.94523207  0.74468963  0.44781049  1
  O  O4776  1  0.91044973  0.74264535  0.46869313  1
  O  O4777  1  0.58099101  0.75859119  0.44869611  1
  C  C4778  1  0.55605532  0.75464502  0.49465040  1
  C  C4779  1  0.54399156  0.75151355  0.47165804  1
  C  C4780  1  0.55872297  0.75167183  0.44752472  1
  H  H4781  1  0.57587054  0.75796373  0.49467717  1
  Zn  Zn4782  1  0.56255897  0.75243106  0.39048006  1
  O  O4783  1  0.55727190  0.78679089  0.37573159  1
  O  O4784  1  0.63069782  0.77821013  0.43684332  1
  O  O4785  1  0.63802260  0.79766158  0.40235304  1
  C  C4786  1  0.63954881  0.79645018  0.42517284  1
  C  C4787  1  0.68905511  0.84196092  0.44488700  1
  H  H4788  1  0.66834160  0.83291351  0.41035672  1
  C  C4789  1  0.65816923  0.80998958  0.44123602  1
  C  C4790  1  0.65929157  0.80443986  0.46607284  1
  C  C4791  1  0.67258972  0.82893414  0.42975448  1
  C  C4792  1  0.69170108  0.83614791  0.47013147  1
  H  H4793  1  0.64790485  0.78947312  0.47318220  1
  H  H4794  1  0.70690829  0.84717507  0.48084186  1
  C  C4795  1  0.67624972  0.81823561  0.48059360  1
  C  C4796  1  0.70672095  0.85923100  0.43190015  1
  O  O4797  1  0.70084289  0.86191087  0.40935041  1
  O  O4798  1  0.72344641  0.87256953  0.44111973  1
  O  O4799  1  0.78863720  0.87286219  0.43607656  1
  H  H4800  1  0.84757982  0.79147288  0.48506613  1
  C  C4801  1  0.80220724  0.85698275  0.42623388  1
  C  C4802  1  0.83190791  0.82335097  0.43207610  1
  C  C4803  1  0.84434687  0.80756889  0.44865059  1
  H  H4804  1  0.83525011  0.82519334  0.41216698  1
  C  C4805  1  0.83885526  0.80629096  0.47391200  1
  C  C4806  1  0.86032900  0.78764410  0.43769301  1
  C  C4807  1  0.81523117  0.83967548  0.44317437  1
  C  C4808  1  0.82460640  0.82529928  0.48527488  1
  O  O4809  1  0.80573628  0.85657377  0.40289396  1
  H  H4810  1  0.79862071  0.85476407  0.47726178  1
  C  C4811  1  0.81119803  0.84079575  0.46897329  1
  O  O4812  1  0.86637729  0.79052692  0.41502670  1
  O  O4813  1  0.86700292  0.76958206  0.44972967  1
  C  C4814  1  0.93377129  0.78845244  0.37694024  1
  Zn  Zn4815  1  0.87964008  0.76511356  0.38421239  1
  O  O4816  1  0.91036016  0.79018389  0.37867133  1
  O  O4817  1  0.94645524  0.77527200  0.39112721  1
  H  H4818  1  0.74436392  0.98624311  0.40830979  1
  O  O4819  1  0.74342962  0.94701521  0.40598167  1
  C  C4820  1  0.74829643  0.98807046  0.42851331  1
  H  H4821  1  0.75412434  0.95010830  0.47906431  1
  O  O4822  1  0.79105422  0.93418611  0.37673180  1
  C  C4823  1  0.75331169  0.99083946  0.48054126  1
  C  C4824  1  0.75164497  0.94411266  0.42747222  1
  C  C4825  1  0.75131138  0.96690117  0.44290837  1
  O  O4826  1  0.75760369  0.92416956  0.43742138  1
  C  C4827  1  0.75355204  0.96705053  0.46898441  1
  Zn  Zn4828  1  0.75434035  0.88892735  0.41966898  1
  O  O4829  1  0.75230748  0.88935446  0.38323848  1
  O  O4830  1  0.73973411  0.59626569  0.60570790  1
  Zn  Zn4831  1  0.70630442  0.61049281  0.61511710  1
  Zn  Zn4832  1  0.74316891  0.56202190  0.61515693  1
  Zn  Zn4833  1  0.74333133  0.59517397  0.56888756  1
  O  O4834  1  0.70687222  0.60543239  0.54912021  1
  O  O4835  1  0.68224155  0.61231122  0.58005607  1
  C  C4836  1  0.68878580  0.61592226  0.55835288  1
  O  O4837  1  0.74722615  0.55906712  0.55440715  1
  O  O4838  1  0.70404191  0.54673396  0.62021876  1
  C  C4839  1  0.75291242  0.53901538  0.56445561  1
  O  O4840  1  0.75328222  0.53522161  0.58781673  1
  C  C4841  1  0.75634698  0.51666104  0.54864956  1
  C  C4842  1  0.75773636  0.51545080  0.52294299  1
  H  H4843  1  0.75502860  0.53352173  0.51521314  1
  O  O4844  1  0.77623354  0.61356002  0.55642542  1
  Zn  Zn4845  1  0.76516495  0.61808676  0.62447957  1
  O  O4846  1  0.54135007  0.70445482  0.60873428  1
  O  O4847  1  0.59857820  0.73610521  0.59696079  1
  Zn  Zn4848  1  0.60932764  0.70352062  0.61037880  1
  Zn  Zn4849  1  0.60929888  0.73736656  0.56121835  1
  Zn  Zn4850  1  0.56244282  0.73860695  0.59619496  1
  O  O4851  1  0.57498045  0.68151177  0.61430391  1
  O  O4852  1  0.54433315  0.74621985  0.56070312  1
  H  H4853  1  0.50701322  0.74273346  0.53269198  1
  C  C4854  1  0.51710474  0.74658624  0.51563016  1
  O  O4855  1  0.61338013  0.69951480  0.54694174  1
  O  O4856  1  0.62070031  0.67842536  0.58046252  1
  C  C4857  1  0.62417257  0.68332924  0.55815350  1
  C  C4858  1  0.55247055  0.68793733  0.61882740  1
  H  H4859  1  0.63276049  0.68354544  0.51064339  1
  H  H4860  1  0.69057992  0.62697577  0.50780579  1
  C  C4861  1  0.67169557  0.63263543  0.54313291  1
  C  C4862  1  0.67599831  0.63789127  0.51818606  1
  C  C4863  1  0.65475790  0.64731801  0.55628837  1
  H  H4864  1  0.65054677  0.64324297  0.57560584  1
  C  C4865  1  0.64299686  0.66727669  0.54480717  1
  C  C4866  1  0.64626020  0.67091815  0.51910942  1
  C  C4867  1  0.66231527  0.65664175  0.50492048  1
  O  O4868  1  0.71174643  0.65103364  0.60865734  1
  C  C4869  1  0.72970401  0.66515763  0.61200391  1
  C  C4870  1  0.72215038  0.69136630  0.61523720  1
  C  C4871  1  0.70609292  0.73949660  0.62081178  1
  C  C4872  1  0.69666726  0.69480960  0.61710150  1
  H  H4873  1  0.68319768  0.68001399  0.61448271  1
  O  O4874  1  0.64801458  0.70768121  0.62183133  1
  C  C4875  1  0.68983794  0.71926954  0.62068037  1
  C  C4876  1  0.66214546  0.72576121  0.62138745  1
  O  O4877  1  0.65508835  0.74747294  0.62317363  1
  C  C4878  1  0.74042081  0.70979106  0.61483855  1
  C  C4879  1  0.73105218  0.73369531  0.61572336  1
  C  C4880  1  0.78771716  0.62938014  0.56891422  1
  O  O4881  1  0.78821306  0.62977692  0.59163206  1
  H  H4882  1  0.78760046  0.63382323  0.51939291  1
  O  O4883  1  0.75155983  0.65702142  0.61337687  1
  C  C4884  1  0.79882562  0.64992793  0.52852872  1
  C  C4885  1  0.80128690  0.65016637  0.55492122  1
  C  C4886  1  0.82848912  0.68523184  0.55248437  1
  C  C4887  1  0.81555373  0.66829147  0.56693039  1
  C  C4888  1  0.82849151  0.68402661  0.52686503  1
  C  C4889  1  0.81395077  0.66623201  0.51439717  1
  H  H4890  1  0.81798944  0.66846607  0.58722863  1
  C  C4891  1  0.84280791  0.70410630  0.56801634  1
  H  H4892  1  0.83593344  0.69976774  0.51594458  1
  O  O4893  1  0.84141114  0.70182528  0.59094744  1
  O  O4894  1  0.85630595  0.71955961  0.55793832  1
  Zn  Zn4895  1  0.85760236  0.72413494  0.62152376  1
  H  H4896  1  0.76081256  0.70516108  0.61217882  1
  C  C4897  1  0.93652539  0.72754288  0.56088590  1
  C  C4898  1  0.94950574  0.73265850  0.53668484  1
  H  H4899  1  0.98669404  0.73444372  0.55304085  1
  C  C4900  1  0.97556033  0.73557274  0.53566084  1
  O  O4901  1  0.94740988  0.72557453  0.58066184  1
  Zn  Zn4902  1  0.88607576  0.74734495  0.56991767  1
  O  O4903  1  0.91239980  0.72215573  0.56039517  1
  C  C4904  1  0.93484098  0.73487722  0.51483088  1
  H  H4905  1  0.91490367  0.73152482  0.51669898  1
  C  C4906  1  0.98713471  0.74099103  0.51259841  1
  C  C4907  1  0.54254774  0.75155393  0.51689303  1
  C  C4908  1  0.55626979  0.75319402  0.54195062  1
  O  O4909  1  0.57906514  0.75561654  0.54164190  1
  O  O4910  1  0.55301891  0.76567930  0.62314654  1
  Zn  Zn4911  1  0.61739239  0.76140505  0.61644667  1
  O  O4912  1  0.63566444  0.76318131  0.54721251  1
  O  O4913  1  0.63608695  0.78391993  0.58161234  1
  C  C4914  1  0.64266931  0.78207932  0.56000218  1
  C  C4915  1  0.66319364  0.79834426  0.52112823  1
  C  C4916  1  0.67064856  0.81888600  0.56062090  1
  C  C4917  1  0.65927852  0.80030188  0.54627098  1
  C  C4918  1  0.69003991  0.83420869  0.52349516  1
  H  H4919  1  0.66490338  0.82219082  0.57984415  1
  C  C4920  1  0.68749284  0.83502703  0.54973571  1
  C  C4921  1  0.67735747  0.81765247  0.50875566  1
  H  H4922  1  0.65357679  0.78393846  0.50991839  1
  H  H4923  1  0.70293035  0.84777124  0.51621608  1
  C  C4924  1  0.69918129  0.85611002  0.56419790  1
  O  O4925  1  0.69360833  0.85805179  0.58656701  1
  Zn  Zn4926  1  0.71680519  0.86989988  0.61647486  1
  O  O4927  1  0.71322268  0.87034782  0.55282170  1
  O  O4928  1  0.73092374  0.82993708  0.61806531  1
  H  H4929  1  0.72399776  0.78588989  0.61007672  1
  C  C4930  1  0.74270632  0.77958526  0.61595268  1
  H  H4931  1  0.69963215  0.75896353  0.62416708  1
  O  O4932  1  0.87460867  0.75154891  0.60460739  1
  C  C4933  1  0.82840110  0.83096370  0.56491772  1
  H  H4934  1  0.82793992  0.83231565  0.58569570  1
  C  C4935  1  0.80937705  0.84206689  0.55131691  1
  C  C4936  1  0.84318096  0.81220706  0.52728407  1
  C  C4937  1  0.84382657  0.81396780  0.55282085  1
  C  C4938  1  0.80617281  0.83856527  0.52593560  1
  H  H4939  1  0.85621090  0.79963339  0.51840066  1
  H  H4940  1  0.78964442  0.84601614  0.51638684  1
  C  C4941  1  0.82491198  0.82517262  0.51343596  1
  C  C4942  1  0.79292821  0.85993632  0.56575496  1
  C  C4943  1  0.86063167  0.79923981  0.57044858  1
  O  O4944  1  0.85966823  0.80182444  0.59329957  1
  O  O4945  1  0.79776493  0.86472788  0.58775934  1
  C  C4946  1  0.75247638  0.82344478  0.62375995  1
  O  O4947  1  0.87469762  0.78456679  0.55953590  1
  O  O4948  1  0.77527094  0.86944082  0.55410316  1
  C  C4949  1  0.75005497  0.75480385  0.61849846  1
  C  C4950  1  0.75968263  0.79706210  0.62271833  1
  O  O4951  1  0.92413323  0.79942682  0.61840212  1
  Zn  Zn4952  1  0.74329216  0.89094734  0.56869021  1
  O  O4953  1  0.74279505  0.89234139  0.60432586  1
  O  O4954  1  0.70911421  0.94015744  0.62040655  1
  Zn  Zn4955  1  0.74614427  0.92623851  0.61533912  1
  C  C4956  1  0.75724308  0.99368009  0.50863971  1
  C  C4957  1  0.75897523  0.97071083  0.52142932  1
  H  H4958  1  0.75918025  0.95208288  0.51223529  1
  O  O4959  1  0.75489094  0.92764908  0.55263429  1
  C  C4960  1  0.75897316  0.97150283  0.54771396  1
  C  C4961  1  0.75897969  0.99315367  0.56096610  1
  C  C4962  1  0.75936594  0.94769942  0.56315250  1
  O  O4963  1  0.76168343  0.95018724  0.58569514  1
  H  H4964  1  0.75804166  0.99382173  0.58147715  1
  Zn  Zn4965  1  0.77427242  0.87752287  0.62178363  1
  Zn  Zn4966  1  0.61084731  0.61263317  0.70975413  1
  O  O4967  1  0.61495246  0.57868085  0.68844851  1
  O  O4968  1  0.59409695  0.59915840  0.74279459  1
  O  O4969  1  0.60790294  0.54568502  0.71059297  1
  O  O4970  1  0.54508397  0.62070442  0.70903999  1
  Zn  Zn4971  1  0.56110337  0.61273280  0.74679316  1
  C  C4972  1  0.61915648  0.55643996  0.69383416  1
  Zn  Zn4973  1  0.59713818  0.56385056  0.74662780  1
  H  H4974  1  0.62607287  0.50749584  0.69143407  1
  O  O4975  1  0.68255616  0.57971734  0.62762198  1
  C  C4976  1  0.68573913  0.55704878  0.62930408  1
  H  H4977  1  0.68750052  0.50980425  0.63735579  1
  C  C4978  1  0.63783812  0.51686418  0.67792255  1
  H  H4979  1  0.65114486  0.57688577  0.66022420  1
  C  C4980  1  0.63607936  0.54252474  0.67587230  1
  C  C4981  1  0.65098683  0.55682902  0.66023278  1
  C  C4982  1  0.66797015  0.54305070  0.64612664  1
  C  C4983  1  0.67176836  0.51846875  0.64829449  1
  C  C4984  1  0.72828408  0.61851399  0.67004247  1
  O  O4985  1  0.70982651  0.61534659  0.65649095  1
  H  H4986  1  0.68345612  0.61069825  0.69060638  1
  C  C4987  1  0.69728951  0.61128580  0.70521659  1
  C  C4988  1  0.72180373  0.61572971  0.69746759  1
  C  C4989  1  0.68975925  0.60936845  0.73018552  1
  O  O4990  1  0.65027918  0.60177339  0.71467600  1
  C  C4991  1  0.66263173  0.60588109  0.73389359  1
  C  C4992  1  0.65496614  0.50429961  0.66285696  1
  C  C4993  1  0.74062070  0.61769207  0.71487566  1
  C  C4994  1  0.70846850  0.61121737  0.74800081  1
  O  O4995  1  0.74966526  0.62372922  0.66151830  1
  C  C4996  1  0.73348802  0.61618552  0.74085245  1
  O  O4997  1  0.77444971  0.55381152  0.63679493  1
  H  H4998  1  0.79643351  0.51733923  0.65000179  1
  O  O4999  1  0.79477411  0.58879974  0.63761857  1
  C  C5000  1  0.82847356  0.51539274  0.67498512  1
  C  C5001  1  0.79319478  0.56676001  0.64284639  1
  C  C5002  1  0.84490752  0.52915960  0.68951848  1
  C  C5003  1  0.84544720  0.55513993  0.68800609  1
  C  C5004  1  0.83021652  0.56716411  0.67104865  1
  H  H5005  1  0.83134477  0.58653416  0.66822057  1
  C  C5006  1  0.81178528  0.55327898  0.65942543  1
  C  C5007  1  0.81043601  0.52752227  0.66119994  1
  C  C5008  1  0.86371564  0.56933227  0.70375168  1
  O  O5009  1  0.86669734  0.59255721  0.70089159  1
  H  H5010  1  0.85733115  0.51961021  0.70133144  1
  Zn  Zn5011  1  0.86791631  0.62216612  0.72602121  1
  H  H5012  1  0.75975538  0.61977578  0.70858903  1
  H  H5013  1  0.78323163  0.61878284  0.73390791  1
  O  O5014  1  0.83113367  0.61678064  0.74692457  1
  O  O5015  1  0.87695968  0.55763366  0.71824939  1
  O  O5016  1  0.94719120  0.59320133  0.73760562  1
  C  C5017  1  0.97349555  0.55807398  0.74265638  1
  C  C5018  1  0.99617221  0.57102899  0.74364829  1
  C  C5019  1  0.94853585  0.56968517  0.74030117  1
  O  O5020  1  0.92969394  0.55705542  0.74413325  1
  H  H5021  1  0.99579935  0.59081464  0.74036671  1
  C  C5022  1  0.99723837  0.52013297  0.74879363  1
  C  C5023  1  0.97419693  0.53242291  0.74531767  1
  H  H5024  1  0.95706415  0.52196080  0.74203128  1
  O  O5025  1  0.58018273  0.62985210  0.68801120  1
  C  C5026  1  0.55703038  0.63171987  0.69249695  1
  C  C5027  1  0.51459414  0.67183477  0.64004858  1
  C  C5028  1  0.54039782  0.67188579  0.63816745  1
  H  H5029  1  0.57538822  0.65835064  0.65304467  1
  C  C5030  1  0.55497109  0.65854599  0.65466653  1
  C  C5031  1  0.54241519  0.64566622  0.67392500  1
  C  C5032  1  0.51644666  0.64515197  0.67527696  1
  H  H5033  1  0.61079564  0.68195059  0.68732893  1
  C  C5034  1  0.61114116  0.69688969  0.70106005  1
  C  C5035  1  0.60999220  0.72018552  0.69174164  1
  C  C5036  1  0.60712346  0.72478755  0.66420829  1
  O  O5037  1  0.60607754  0.70659634  0.65013935  1
  C  C5038  1  0.61508591  0.69127112  0.72681233  1
  C  C5039  1  0.61860522  0.66468425  0.73337451  1
  O  O5040  1  0.61967771  0.64995180  0.71488451  1
  C  C5041  1  0.61036488  0.73855535  0.70921778  1
  C  C5042  1  0.61303157  0.73327875  0.73499523  1
  C  C5043  1  0.61765884  0.70891846  0.74468623  1
  C  C5044  1  0.52160267  0.72972477  0.72246967  1
  O  O5045  1  0.53624200  0.71236804  0.72434220  1
  H  H5046  1  0.50444041  0.68347089  0.62699545  1
  H  H5047  1  0.50678386  0.63357303  0.69009760  1
  O  O5048  1  0.60967515  0.74662550  0.65794428  1
  H  H5049  1  0.50327191  0.68753919  0.73797568  1
  C  C5050  1  0.50175327  0.65860898  0.65870259  1
  C  C5051  1  0.77390605  0.74803916  0.62586577  1
  H  H5052  1  0.78157647  0.72848194  0.62735185  1
  C  C5053  1  0.82034798  0.62738288  0.66055706  1
  O  O5054  1  0.82232467  0.73899766  0.63600377  1
  O  O5055  1  0.82740546  0.64503952  0.65574373  1
  O  O5056  1  0.87949970  0.72180847  0.65448416  1
  O  O5057  1  0.89085786  0.65251841  0.71147046  1
  C  C5058  1  0.88212287  0.73830653  0.67082223  1
  H  H5059  1  0.88118863  0.69175077  0.68560075  1
  C  C5060  1  0.88794975  0.73004846  0.69711793  1
  C  C5061  1  0.90259553  0.66619855  0.72650536  1
  C  C5062  1  0.89832471  0.69381273  0.72169093  1
  C  C5063  1  0.88804952  0.70475756  0.70027582  1
  C  C5064  1  0.90491388  0.73333374  0.73849098  1
  C  C5065  1  0.89460337  0.74459309  0.71745434  1
  O  O5066  1  0.91572371  0.65904179  0.74361526  1
  C  C5067  1  0.90771122  0.70798830  0.74105359  1
  O  O5068  1  0.58745448  0.78864448  0.63004612  1
  C  C5069  1  0.56504457  0.78390159  0.63299844  1
  H  H5070  1  0.51439636  0.78683822  0.64024032  1
  O  O5071  1  0.52780403  0.75135555  0.71881168  1
  C  C5072  1  0.55039248  0.80022295  0.64953126  1
  C  C5073  1  0.52411554  0.80038255  0.65184586  1
  H  H5074  1  0.58575658  0.81729026  0.65921281  1
  C  C5075  1  0.55144187  0.83274257  0.67752163  1
  C  C5076  1  0.56547567  0.81754340  0.66258937  1
  C  C5077  1  0.52627953  0.83289824  0.68147410  1
  C  C5078  1  0.56616566  0.85113933  0.69412079  1
  O  O5079  1  0.58893674  0.85121425  0.69205071  1
  C  C5080  1  0.51131619  0.81558407  0.66822073  1
  H  H5081  1  0.51856327  0.84734010  0.69356473  1
  O  O5082  1  0.55520264  0.86090550  0.71178966  1
  H  H5083  1  0.61123504  0.75808992  0.70454869  1
  C  C5084  1  0.61933918  0.78012621  0.74414924  1
  H  H5085  1  0.61772130  0.78750536  0.72478724  1
  Zn  Zn5086  1  0.62007317  0.86883836  0.71432632  1
  O  O5087  1  0.62522043  0.83196496  0.73312503  1
  O  O5088  1  0.72065075  0.87181956  0.65644518  1
  C  C5089  1  0.73978801  0.87438340  0.67070819  1
  H  H5090  1  0.69616700  0.87089185  0.68963002  1
  C  C5091  1  0.71061245  0.87337554  0.70487213  1
  C  C5092  1  0.70215278  0.87462999  0.72966879  1
  C  C5093  1  0.67515775  0.87184719  0.73522420  1
  O  O5094  1  0.66137665  0.86813005  0.71665560  1
  O  O5095  1  0.76964102  0.83858743  0.62882688  1
  C  C5096  1  0.78450909  0.79134370  0.62967743  1
  H  H5097  1  0.79827331  0.80590480  0.63373531  1
  C  C5098  1  0.79115730  0.76698487  0.63053680  1
  C  C5099  1  0.81786563  0.76117194  0.63461975  1
  O  O5100  1  0.83474704  0.77737025  0.63610129  1
  O  O5101  1  0.84749933  0.87233483  0.74290472  1
  H  H5102  1  0.97000483  0.81261231  0.62887490  1
  Zn  Zn5103  1  0.87517305  0.78038696  0.62655387  1
  O  O5104  1  0.88238291  0.76035606  0.66554708  1
  C  C5105  1  0.91931950  0.81128619  0.63643417  1
  H  H5106  1  0.89411954  0.76445012  0.71522156  1
  O  O5107  1  0.89703704  0.81008864  0.64433865  1
  O  O5108  1  0.95466957  0.85579727  0.73508671  1
  H  H5109  1  0.98970537  0.84649508  0.69951712  1
  O  O5110  1  0.91633695  0.85025789  0.72089385  1
  C  C5111  1  0.93891654  0.84829461  0.71782136  1
  C  C5112  1  0.96576262  0.82111874  0.64638476  1
  C  C5113  1  0.94098410  0.82137242  0.65341761  1
  C  C5114  1  0.93268701  0.83044205  0.67667393  1
  H  H5115  1  0.91413561  0.82898285  0.68293725  1
  C  C5116  1  0.95015696  0.83924526  0.69413487  1
  C  C5117  1  0.97524225  0.83855723  0.68722939  1
  C  C5118  1  0.98380698  0.83051101  0.66429007  1
  H  H5119  1  0.94592686  0.76227874  0.74116175  1
  Zn  Zn5120  1  0.98269971  0.83519767  0.74871798  1
  C  C5121  1  0.50144983  0.97726670  0.74948444  1
  Zn  Zn5122  1  0.56947734  0.87798257  0.74586065  1
  O  O5123  1  0.61803482  0.93523983  0.71492456  1
  O  O5124  1  0.60614700  0.88588580  0.74595864  1
  C  C5125  1  0.73564820  0.87807877  0.69786481  1
  C  C5126  1  0.74628648  0.88220011  0.74065568  1
  O  O5127  1  0.62677597  0.90110594  0.69380145  1
  C  C5128  1  0.62895872  0.92367162  0.69832108  1
  O  O5129  1  0.68936376  0.90577593  0.62775026  1
  C  C5130  1  0.69305451  0.92795363  0.63169877  1
  H  H5131  1  0.63090566  0.97434383  0.69369593  1
  C  C5132  1  0.67501605  0.93922178  0.65050272  1
  C  C5133  1  0.67650557  0.96459765  0.65241971  1
  C  C5134  1  0.65782342  0.92539912  0.66324546  1
  C  C5135  1  0.64288017  0.93894709  0.67999989  1
  H  H5136  1  0.69026141  0.97551479  0.64087033  1
  C  C5137  1  0.66069690  0.97872124  0.66743243  1
  C  C5138  1  0.64387006  0.96456920  0.68177860  1
  H  H5139  1  0.65600750  0.90550969  0.66294070  1
  C  C5140  1  0.72101959  0.88092605  0.74665160  1
  O  O5141  1  0.76127998  0.87632666  0.66252909  1
  H  H5142  1  0.79756933  0.88101443  0.72886172  1
  C  C5143  1  0.75401339  0.88196477  0.71515868  1
  H  H5144  1  0.77407661  0.88459311  0.70983233  1
  C  C5145  1  0.87005035  0.92534677  0.70290791  1
  O  O5146  1  0.86910322  0.90228677  0.70385029  1
  O  O5147  1  0.79923000  0.90300175  0.63882454  1
  C  C5148  1  0.83343943  0.92492487  0.67331461  1
  C  C5149  1  0.85115143  0.96405003  0.68586449  1
  H  H5150  1  0.79964916  0.97386036  0.65066268  1
  H  H5151  1  0.83342809  0.90451744  0.67467676  1
  H  H5152  1  0.86358427  0.97246028  0.69890936  1
  C  C5153  1  0.81593916  0.93845005  0.65999776  1
  C  C5154  1  0.79560305  0.92460165  0.64592742  1
  C  C5155  1  0.81499379  0.96404212  0.66021601  1
  C  C5156  1  0.83294394  0.97793214  0.67299386  1
  O  O5157  1  0.77789390  0.93743627  0.63853064  1
  C  C5158  1  0.85080183  0.93827884  0.68712096  1
  C  C5159  1  0.79309695  0.87990220  0.74938410  1
  C  C5160  1  0.98148064  0.95026978  0.73725848  1
  O  O5161  1  0.95486528  0.91778662  0.73295453  1
  Zn  Zn5162  1  0.88715541  0.88094602  0.73040186  1
  O  O5163  1  0.88574786  0.93846190  0.71420934  1
  C  C5164  1  0.95509826  0.94067745  0.73730511  1
  O  O5165  1  0.93575528  0.95300214  0.74068770  1
  H  H5166  1  0.96503805  0.98735569  0.73698140  1
  C  C5167  1  0.98187913  0.97606723  0.73720188  1
  O  O5168  1  0.61484282  0.55794143  0.78253800  1
  O  O5169  1  0.56341554  0.55012138  0.76460809  1
  Zn  Zn5170  1  0.61611804  0.61834098  0.76755349  1
  C  C5171  1  0.51750859  0.52261134  0.76902361  1
  H  H5172  1  0.53494729  0.51296253  0.77273093  1
  C  C5173  1  0.51929612  0.54821174  0.76737672  1
  O  O5174  1  0.54340606  0.58472659  0.77093449  1
  C  C5175  1  0.54362902  0.56197719  0.76738586  1
  O  O5176  1  0.62867407  0.59184801  0.79922924  1
  C  C5177  1  0.62946778  0.56933990  0.79653166  1
  H  H5178  1  0.63347676  0.52035466  0.80058330  1
  C  C5179  1  0.66339659  0.51749387  0.82873129  1
  C  C5180  1  0.64685346  0.52976788  0.81213076  1
  C  C5181  1  0.67925691  0.55679865  0.84377221  1
  C  C5182  1  0.66181167  0.56970327  0.82882549  1
  H  H5183  1  0.66152539  0.59012484  0.82883317  1
  C  C5184  1  0.64676035  0.55528481  0.81367376  1
  C  C5185  1  0.67964075  0.53138504  0.84416417  1
  H  H5186  1  0.69221230  0.52145962  0.85727191  1
  C  C5187  1  0.69632689  0.57266373  0.85892626  1
  O  O5188  1  0.69317215  0.59534489  0.85895685  1
  O  O5189  1  0.65368075  0.60781853  0.75545961  1
  H  H5190  1  0.70363823  0.60996587  0.76710010  1
  H  H5191  1  0.72474634  0.62438946  0.79086004  1
  C  C5192  1  0.74408668  0.62414078  0.78551877  1
  O  O5193  1  0.71326905  0.56299866  0.87254877  1
  H  H5194  1  0.78463252  0.53148499  0.83834825  1
  C  C5195  1  0.81961958  0.52202640  0.81746199  1
  C  C5196  1  0.84802708  0.55649826  0.81412279  1
  C  C5197  1  0.83427185  0.57064944  0.83065505  1
  H  H5198  1  0.84079582  0.58961240  0.83553511  1
  C  C5199  1  0.81143896  0.56076651  0.83790089  1
  C  C5200  1  0.80343159  0.53782826  0.83054345  1
  C  C5201  1  0.84137856  0.53292914  0.80754041  1
  C  C5202  1  0.79541631  0.57526567  0.85541654  1
  H  H5203  1  0.85423722  0.52240568  0.79535276  1
  O  O5204  1  0.79960803  0.59606293  0.86252359  1
  C  C5205  1  0.87227321  0.56649133  0.80376469  1
  O  O5206  1  0.77508613  0.56374614  0.86116209  1
  C  C5207  1  0.75293299  0.62082704  0.76071901  1
  C  C5208  1  0.77836025  0.62213991  0.75360932  1
  C  C5209  1  0.82362977  0.62490896  0.76693420  1
  O  O5210  1  0.88122412  0.58655864  0.81057634  1
  O  O5211  1  0.88163765  0.55430249  0.78605446  1
  O  O5212  1  0.88817523  0.61001117  0.75348921  1
  Zn  Zn5213  1  0.92396829  0.61922699  0.75323324  1
  Zn  Zn5214  1  0.87683757  0.62136326  0.78750476  1
  Zn  Zn5215  1  0.89291480  0.57337620  0.75201067  1
  O  O5216  1  0.55110807  0.63822855  0.77384454  1
  O  O5217  1  0.58687518  0.64466991  0.79130070  1
  C  C5218  1  0.56437293  0.64788511  0.79089182  1
  C  C5219  1  0.55137944  0.66475924  0.80949037  1
  C  C5220  1  0.56470470  0.67739795  0.82777507  1
  H  H5221  1  0.58525258  0.67543515  0.82848247  1
  C  C5222  1  0.52535584  0.66595792  0.80963822  1
  C  C5223  1  0.51160172  0.67700127  0.82963810  1
  C  C5224  1  0.55299233  0.69035338  0.84664164  1
  C  C5225  1  0.52669733  0.69008409  0.84766492  1
  C  C5226  1  0.56859903  0.70171995  0.86679826  1
  H  H5227  1  0.51572126  0.65678823  0.79357216  1
  H  H5228  1  0.51847671  0.70006859  0.86320217  1
  O  O5229  1  0.59120409  0.69770619  0.86531564  1
  H  H5230  1  0.60880773  0.73141904  0.78372708  1
  C  C5231  1  0.61319383  0.74961413  0.77758403  1
  H  H5232  1  0.62305074  0.70524888  0.76355812  1
  O  O5233  1  0.61676489  0.74180641  0.83183923  1
  Zn  Zn5234  1  0.62034483  0.72261750  0.87014243  1
  O  O5235  1  0.62072049  0.65743658  0.75538951  1
  O  O5236  1  0.73266148  0.63100505  0.83465266  1
  O  O5237  1  0.65931140  0.72683856  0.86683476  1
  C  C5238  1  0.67424759  0.74302357  0.87423583  1
  C  C5239  1  0.79602979  0.62551690  0.77209648  1
  C  C5240  1  0.75443726  0.63274883  0.83047641  1
  O  O5241  1  0.83793168  0.63200348  0.78409974  1
  C  C5242  1  0.78812350  0.62917281  0.79675322  1
  C  C5243  1  0.76327312  0.62804203  0.80346770  1
  H  H5244  1  0.80238495  0.63319518  0.81162875  1
  O  O5245  1  0.77062540  0.63748778  0.84680011  1
  O  O5246  1  0.84351660  0.74926312  0.87165228  1
  O  O5247  1  0.93455306  0.62739147  0.79197974  1
  H  H5248  1  0.88484844  0.73685548  0.78760504  1
  O  O5249  1  0.90214086  0.64896829  0.80447426  1
  C  C5250  1  0.92556731  0.64380088  0.80497672  1
  H  H5251  1  0.97684462  0.64311590  0.80705730  1
  C  C5252  1  0.94304577  0.65981406  0.81972578  1
  C  C5253  1  0.93008969  0.67658194  0.83489453  1
  H  H5254  1  0.90899253  0.67554784  0.83623726  1
  C  C5255  1  0.96898895  0.65712657  0.82016520  1
  C  C5256  1  0.94494600  0.69397008  0.84712640  1
  C  C5257  1  0.98369806  0.67429774  0.83337145  1
  C  C5258  1  0.97064098  0.69190107  0.84781910  1
  H  H5259  1  0.91605637  0.69945632  0.75789027  1
  H  H5260  1  0.98099579  0.70418258  0.86217249  1
  O  O5261  1  0.88132315  0.74800822  0.83765258  1
  C  C5262  1  0.90154147  0.74866626  0.78550677  1
  C  C5263  1  0.93077543  0.71163407  0.86425884  1
  O  O5264  1  0.90873823  0.70858773  0.87100314  1
  C  C5265  1  0.91256923  0.74918354  0.76104393  1
  O  O5266  1  0.94284127  0.73026879  0.86923098  1
  H  H5267  1  0.52505928  0.84009975  0.79761910  1
  C  C5268  1  0.51863987  0.81869630  0.83172963  1
  C  C5269  1  0.53190579  0.80672069  0.85096774  1
  C  C5270  1  0.53296371  0.83234974  0.81446074  1
  C  C5271  1  0.56951700  0.82857763  0.83915193  1
  C  C5272  1  0.55785510  0.83761700  0.81708931  1
  C  C5273  1  0.55667990  0.81196606  0.85395735  1
  H  H5274  1  0.59002183  0.83089963  0.84073191  1
  C  C5275  1  0.57101626  0.85097501  0.79612419  1
  O  O5276  1  0.59237684  0.85934450  0.80013644  1
  H  H5277  1  0.52219844  0.79435171  0.86419842  1
  C  C5278  1  0.61415190  0.75520242  0.75163583  1
  C  C5279  1  0.61936984  0.76694942  0.79511387  1
  O  O5280  1  0.55849082  0.85585459  0.77696737  1
  C  C5281  1  0.62107332  0.76291742  0.82297138  1
  C  C5282  1  0.62446622  0.79074521  0.78742615  1
  C  C5283  1  0.62277831  0.79784026  0.76214336  1
  C  C5284  1  0.57017883  0.79778645  0.87456496  1
  O  O5285  1  0.62750463  0.78031154  0.83620156  1
  C  C5286  1  0.62556226  0.82426677  0.75460380  1
  H  H5287  1  0.63109348  0.80444068  0.80146801  1
  O  O5288  1  0.63301536  0.83600219  0.77303579  1
  Zn  Zn5289  1  0.62504702  0.87457978  0.77677719  1
  O  O5290  1  0.66612637  0.87387696  0.75614947  1
  O  O5291  1  0.85396431  0.87418359  0.78243059  1
  O  O5292  1  0.84911712  0.78930123  0.87197314  1
  C  C5293  1  0.83557950  0.77106499  0.87335160  1
  C  C5294  1  0.89500361  0.76438986  0.82955794  1
  C  C5295  1  0.99765623  0.83166467  0.84152787  1
  O  O5296  1  0.89953007  0.78315058  0.84142555  1
  C  C5297  1  0.90944054  0.76477678  0.80441878  1
  H  H5298  1  0.93231587  0.79484442  0.81498114  1
  C  C5299  1  0.92798655  0.78174927  0.80094881  1
  C  C5300  1  0.93938507  0.78011688  0.77752031  1
  C  C5301  1  0.98535265  0.84910061  0.82552421  1
  C  C5302  1  0.94417387  0.83751079  0.84296610  1
  C  C5303  1  0.95947982  0.85108183  0.82719651  1
  H  H5304  1  0.92402987  0.83980650  0.84384851  1
  O  O5305  1  0.96462396  0.81370127  0.78808315  1
  C  C5306  1  0.96070576  0.79698548  0.77312425  1
  C  C5307  1  0.98282462  0.81956584  0.85974139  1
  C  C5308  1  0.95695408  0.82217551  0.86013462  1
  C  C5309  1  0.93335260  0.76446635  0.75752295  1
  C  C5310  1  0.94441656  0.86814809  0.81026224  1
  H  H5311  1  0.99158971  0.80759444  0.87287669  1
  H  H5312  1  0.99460834  0.86027059  0.81117510  1
  O  O5313  1  0.92065694  0.86823780  0.81088130  1
  O  O5314  1  0.97331096  0.79652903  0.75310755  1
  C  C5315  1  0.55001071  0.92948223  0.76287230  1
  C  C5316  1  0.52470424  0.94070695  0.75919876  1
  H  H5317  1  0.54159333  0.97593810  0.75963755  1
  C  C5318  1  0.52410530  0.96595930  0.75545018  1
  O  O5319  1  0.56922798  0.94128844  0.75869004  1
  O  O5320  1  0.54996755  0.90617698  0.76607060  1
  H  H5321  1  0.50453252  0.90624795  0.75561674  1
  C  C5322  1  0.50402445  0.92632734  0.75579444  1
  Zn  Zn5323  1  0.60735428  0.92268166  0.75150140  1
  H  H5324  1  0.71576620  0.88056962  0.76717379  1
  O  O5325  1  0.62546594  0.93309662  0.78504381  1
  H  H5326  1  0.74286371  0.87854984  0.79058516  1
  O  O5327  1  0.64079274  0.89938280  0.80213140  1
  C  C5328  1  0.64090700  0.92240861  0.79784790  1
  H  H5329  1  0.64337391  0.97108539  0.79932661  1
  C  C5330  1  0.65818281  0.96357782  0.81098717  1
  C  C5331  1  0.67687674  0.97819944  0.82294519  1
  C  C5332  1  0.65931519  0.93842297  0.81196980  1
  C  C5333  1  0.67818671  0.92690252  0.82672116  1
  H  H5334  1  0.67854647  0.90709595  0.82940456  1
  C  C5335  1  0.69636859  0.94082661  0.83771537  1
  C  C5336  1  0.69638594  0.96618815  0.83559145  1
  C  C5337  1  0.71755119  0.92901362  0.85121800  1
  H  H5338  1  0.71118047  0.97862090  0.84260130  1
  O  O5339  1  0.71272600  0.90933526  0.86198047  1
  O  O5340  1  0.73662198  0.94205603  0.85503538  1
  C  C5341  1  0.83900956  0.87552644  0.76403979  1
  C  C5342  1  0.81157314  0.87749774  0.76705058  1
  H  H5343  1  0.82084345  0.87817391  0.80701495  1
  C  C5344  1  0.80599221  0.87731235  0.79303560  1
  C  C5345  1  0.78155867  0.87902717  0.80048512  1
  C  C5346  1  0.76235039  0.88055491  0.78343400  1
  C  C5347  1  0.76848417  0.88205550  0.75779115  1
  O  O5348  1  0.79333196  0.88354960  0.84322838  1
  O  O5349  1  0.75382427  0.87861574  0.83493843  1
  C  C5350  1  0.77560536  0.88013772  0.82814112  1
  O  O5351  1  0.81900949  0.92646022  0.87489619  1
  C  C5352  1  0.84585261  0.99748332  0.82898726  1
  H  H5353  1  0.81733905  0.99720613  0.85763118  1
  C  C5354  1  0.85281378  0.94777464  0.83961329  1
  H  H5355  1  0.85588534  0.92759874  0.84278925  1
  C  C5356  1  0.83166915  0.98699173  0.84837096  1
  C  C5357  1  0.83575984  0.96195541  0.85432012  1
  C  C5358  1  0.86156858  0.98305033  0.81292627  1
  C  C5359  1  0.86447977  0.95795325  0.81885318  1
  C  C5360  1  0.81581280  0.94901450  0.86954183  1
  H  H5361  1  0.87161966  0.99048113  0.79697838  1
  C  C5362  1  0.88184778  0.94125307  0.80341076  1
  O  O5363  1  0.88009332  0.91957527  0.80986135  1
  O  O5364  1  0.95603086  0.88108103  0.79601215  1
  O  O5365  1  0.88978563  0.94901294  0.78331151  1
  Zn  Zn5366  1  0.89209321  0.88582111  0.79041790  1
  O  O5367  1  0.90699741  0.89595380  0.75761907  1
  Zn  Zn5368  1  0.94153096  0.88763866  0.75687229  1
  Zn  Zn5369  1  0.90262506  0.93286537  0.75014942  1
  Zn  Zn5370  1  0.71521578  0.62100933  0.88011919  1
  O  O5371  1  0.70514051  0.61111772  0.93994881  1
  Zn  Zn5372  1  0.74646719  0.57551041  0.88638264  1
  O  O5373  1  0.74625677  0.61091955  0.89631575  1
  Zn  Zn5374  1  0.74587892  0.61189939  0.93399159  1
  O  O5375  1  0.68421713  0.62317365  0.90678080  1
  H  H5376  1  0.75052326  0.55079667  0.98474376  1
  C  C5377  1  0.75242984  0.50925473  0.98949709  1
  C  C5378  1  0.75342303  0.53185604  0.97544391  1
  C  C5379  1  0.75724251  0.53026008  0.95050400  1
  C  C5380  1  0.76064707  0.50786445  0.93737671  1
  O  O5381  1  0.76346697  0.55209222  0.91268911  1
  O  O5382  1  0.75550995  0.57428247  0.94542125  1
  C  C5383  1  0.75974321  0.55387793  0.93575637  1
  H  H5384  1  0.76528437  0.50743498  0.91656139  1
  O  O5385  1  0.78731743  0.62411340  0.94150444  1
  O  O5386  1  0.55903352  0.71488754  0.88397234  1
  H  H5387  1  0.52217646  0.73833636  0.96348974  1
  C  C5388  1  0.53036311  0.74433091  0.98101477  1
  Zn  Zn5389  1  0.57394389  0.74755538  0.89852453  1
  O  O5390  1  0.56259621  0.74365398  0.94022536  1
  C  C5391  1  0.57297633  0.74833363  0.95984765  1
  O  O5392  1  0.71523492  0.66240898  0.88324968  1
  H  H5393  1  0.68996518  0.69637941  0.87626539  1
  C  C5394  1  0.69048794  0.62643522  0.92931858  1
  O  O5395  1  0.64121284  0.72490153  0.93878195  1
  C  C5396  1  0.70155512  0.73481234  0.87689120  1
  C  C5397  1  0.70575429  0.71042207  0.87786062  1
  C  C5398  1  0.73087567  0.70306698  0.88301624  1
  O  O5399  1  0.63548282  0.70065967  0.90627837  1
  H  H5400  1  0.69558683  0.63800406  0.97645910  1
  C  C5401  1  0.73407526  0.67520963  0.88582534  1
  C  C5402  1  0.64259950  0.70458044  0.92750303  1
  C  C5403  1  0.66234933  0.68960408  0.96658701  1
  C  C5404  1  0.65710413  0.68515848  0.94132975  1
  C  C5405  1  0.67944396  0.64806227  0.94236808  1
  H  H5406  1  0.66318552  0.66119100  0.90763556  1
  C  C5407  1  0.68526392  0.65283534  0.96728306  1
  C  C5408  1  0.66482698  0.66469668  0.92807301  1
  C  C5409  1  0.67579960  0.67257903  0.98161382  1
  H  H5410  1  0.65321395  0.70511053  0.97468195  1
  C  C5411  1  0.74624737  0.74468200  0.88185535  1
  O  O5412  1  0.74008546  0.64008715  0.96266777  1
  C  C5413  1  0.74664129  0.64230488  0.98537322  1
  H  H5414  1  0.79606154  0.73956197  0.87697903  1
  C  C5415  1  0.75153052  0.71896477  0.88473733  1
  Zn  Zn5416  1  0.77649287  0.62754419  0.88519751  1
  O  O5417  1  0.75472780  0.66708679  0.89121542  1
  O  O5418  1  0.80447130  0.64072641  0.90900424  1
  H  H5419  1  0.75726031  0.68282447  0.95777495  1
  C  C5420  1  0.76505937  0.68357074  0.97715513  1
  O  O5421  1  0.77801637  0.71725666  0.94319599  1
  C  C5422  1  0.78644078  0.72161431  0.96416698  1
  C  C5423  1  0.77963736  0.70331512  0.98564486  1
  H  H5424  1  0.77044853  0.71097149  0.88635912  1
  H  H5425  1  0.80480770  0.63994173  0.98407337  1
  C  C5426  1  0.80153971  0.63967013  0.93206722  1
  C  C5427  1  0.81555933  0.65631800  0.94897150  1
  C  C5428  1  0.83015130  0.67423311  0.93707405  1
  H  H5429  1  0.82925033  0.67418767  0.91620449  1
  C  C5430  1  0.84343730  0.69166285  0.95081330  1
  C  C5431  1  0.85597951  0.71332308  0.93776925  1
  O  O5432  1  0.85923861  0.71514975  0.91462087  1
  C  C5433  1  0.84298642  0.68931177  0.97650480  1
  C  C5434  1  0.81527694  0.65410217  0.97493026  1
  C  C5435  1  0.83169230  0.66963208  0.98895181  1
  H  H5436  1  0.85400328  0.70117929  0.98904811  1
  C  C5437  1  0.75982527  0.66526772  0.99474904  1
  O  O5438  1  0.86517400  0.72945573  0.95218849  1
  O  O5439  1  0.79970585  0.73862656  0.96999386  1
  Zn  Zn5440  1  0.87934986  0.73203901  0.87868696  1
  O  O5441  1  0.95013057  0.73666813  0.92880973  1
  C  C5442  1  0.97688521  0.74519006  0.97384241  1
  H  H5443  1  0.98626861  0.74365645  0.95515754  1
  O  O5444  1  0.91502361  0.73853235  0.95016921  1
  C  C5445  1  0.93773983  0.73884581  0.94879729  1
  C  C5446  1  0.95157512  0.74356046  0.97313870  1
  C  C5447  1  0.98939116  0.74548366  0.99710992  1
  H  H5448  1  0.91770108  0.74440708  0.99477130  1
  C  C5449  1  0.93745747  0.74497667  0.99493448  1
  O  O5450  1  0.59223680  0.80220389  0.87624975  1
  O  O5451  1  0.61001826  0.75213304  0.89418620  1
  Zn  Zn5452  1  0.62058820  0.75728742  0.93033178  1
  O  O5453  1  0.55852557  0.78188025  0.88637834  1
  C  C5454  1  0.55549027  0.75049058  0.98216428  1
  O  O5455  1  0.59596818  0.75216347  0.96182375  1
  O  O5456  1  0.66733794  0.76435580  0.87773855  1
  H  H5457  1  0.71665149  0.76981278  0.87510428  1
  C  C5458  1  0.72132736  0.75153005  0.87922661  1
  Zn  Zn5459  1  0.62833548  0.78130011  0.87825223  1
  H  H5460  1  0.74084761  0.79885582  0.88926387  1
  O  O5461  1  0.62643425  0.79554004  0.94010995  1
  O  O5462  1  0.64258207  0.80972258  0.90488278  1
  H  H5463  1  0.64648133  0.81298298  0.97798635  1
  C  C5464  1  0.64264308  0.80847405  0.92826934  1
  C  C5465  1  0.66078103  0.82388234  0.94211616  1
  C  C5466  1  0.67680315  0.83977184  0.92877115  1
  H  H5467  1  0.67653861  0.84122817  0.90865107  1
  C  C5468  1  0.65905221  0.82432595  0.96837108  1
  C  C5469  1  0.69447566  0.85282580  0.94237810  1
  C  C5470  1  0.69546922  0.85109591  0.96824022  1
  C  C5471  1  0.67777291  0.83730920  0.98065855  1
  H  H5472  1  0.71126808  0.85979895  0.97815592  1
  C  C5473  1  0.71276347  0.86881137  0.92877098  1
  O  O5474  1  0.74989012  0.84192997  0.88569889  1
  O  O5475  1  0.71071793  0.87041519  0.90536702  1
  C  C5476  1  0.80914281  0.77627832  0.87859395  1
  C  C5477  1  0.79029781  0.75881394  0.87918445  1
  H  H5478  1  0.81602713  0.81563383  0.87763745  1
  C  C5479  1  0.80292822  0.80120594  0.88015063  1
  C  C5480  1  0.76520206  0.76536552  0.88252634  1
  C  C5481  1  0.77794943  0.80769637  0.88275550  1
  C  C5482  1  0.75882715  0.79049045  0.88526120  1
  O  O5483  1  0.79036955  0.84784199  0.87918877  1
  C  C5484  1  0.77095229  0.83467983  0.88126342  1
  C  C5485  1  0.82193960  0.86169716  0.95465899  1
  H  H5486  1  0.83991258  0.84970068  0.91909390  1
  C  C5487  1  0.83919643  0.84879208  0.94055068  1
  C  C5488  1  0.85156191  0.83061550  0.95461451  1
  C  C5489  1  0.85096961  0.83123439  0.98041802  1
  H  H5490  1  0.86303550  0.81867604  0.99193067  1
  C  C5491  1  0.81967988  0.86284062  0.98033498  1
  C  C5492  1  0.83581433  0.84816810  0.99402537  1
  C  C5493  1  0.86744117  0.81247219  0.94083214  1
  H  H5494  1  0.80517111  0.87399388  0.98955541  1
  O  O5495  1  0.86735565  0.81374045  0.91760352  1
  O  O5496  1  0.88098517  0.79671711  0.95176782  1
  C  C5497  1  0.94101309  0.80930227  0.87945637  1
  O  O5498  1  0.92062712  0.81751733  0.88575335  1
  Zn  Zn5499  1  0.88302099  0.75926227  0.93270583  1
  O  O5500  1  0.95090720  0.79085393  0.89029094  1
  Zn  Zn5501  1  0.93295526  0.75593794  0.89719276  1
  O  O5502  1  0.89593168  0.76091301  0.89946230  1
  Zn  Zn5503  1  0.88765657  0.79326006  0.88228402  1
  C  C5504  1  0.74953666  0.96453583  0.93076851  1
  Zn  Zn5505  1  0.73820558  0.88048405  0.87822275  1
  O  O5506  1  0.73092571  0.87723435  0.94048079  1
  C  C5507  1  0.74995144  0.98942234  0.94303354  1
  O  O5508  1  0.74864487  0.96559387  0.90716411  1
  O  O5509  1  0.76354404  0.90196735  0.89293524  1
  Zn  Zn5510  1  0.76521175  0.93739561  0.88409762  1
  O  O5511  1  0.79659556  0.95886968  0.87763383  1
  Zn  Zn5512  1  0.79605259  0.89064866  0.88100402  1
  Zn  Zn5513  1  0.75697455  0.90369462  0.92899367  1
  O  O5514  1  0.79032031  0.89264160  0.94869158  1
  C  C5515  1  0.80551857  0.87878483  0.93921853  1
  H  H5516  1  0.75707157  0.97157495  0.97633426  1
  C  C5517  1  0.75424622  0.99006773  0.96867173  1
  O  O5518  1  0.75066880  0.94442633  0.94205180  1
  O  O5519  1  0.81156503  0.87944073  0.91622654  1
