# generated using pymatgen
data_ZnHC4N11
_symmetry_space_group_name_H-M   'P 1'
_cell_length_a   28.69072262
_cell_length_b   24.65325936
_cell_length_c   23.70391885
_cell_angle_alpha   90.00000000
_cell_angle_beta   90.00000000
_cell_angle_gamma   90.00000000
_symmetry_Int_Tables_number   1
_chemical_formula_structural   ZnHC4N11
_chemical_formula_sum   'Zn48 H48 C192 N528'
_cell_volume   16766.25175924
_cell_formula_units_Z   48
loop_
 _symmetry_equiv_pos_site_id
 _symmetry_equiv_pos_as_xyz
  1  'x, y, z'
loop_
 _atom_site_type_symbol
 _atom_site_label
 _atom_site_symmetry_multiplicity
 _atom_site_fract_x
 _atom_site_fract_y
 _atom_site_fract_z
 _atom_site_occupancy
  N  N0  1  0.15318904  0.13193472  0.38269456  1
  C  C1  1  0.17601822  0.17840697  0.37557163  1
  H  H2  1  0.17364070  0.10048523  0.28644775  1
  C  C3  1  0.20961739  0.20991500  0.04258365  1
  N  N4  1  0.09482926  0.14593055  0.38350621  1
  N  N5  1  0.09042927  0.19532778  0.37421819  1
  N  N6  1  0.14421719  0.21650023  0.36612857  1
  N  N7  1  0.19037904  0.06419537  0.28539962  1
  Zn  Zn8  1  0.17730702  0.05608552  0.37025492  1
  C  C9  1  0.20583358  0.22929722  0.10175806  1
  N  N10  1  0.06537846  0.43101908  0.04174230  1
  C  C11  1  0.23802262  0.17295323  0.00390071  1
  N  N12  1  0.12405637  0.00586181  0.26036384  1
  N  N13  1  0.02853053  0.34030160  0.20361282  1
  N  N14  1  0.00154575  0.24875025  0.15862209  1
  N  N15  1  0.04262536  0.45180835  0.00410465  1
  N  N16  1  0.15620716  0.02988391  0.23750607  1
  N  N17  1  0.23960850  0.04958478  0.40373213  1
  N  N18  1  0.18094080  0.24086529  0.01727429  1
  N  N19  1  0.18057343  0.28217796  0.18196230  1
  N  N20  1  0.12691661  0.36242881  0.11522718  1
  C  C21  1  0.03642419  0.27211780  0.13477938  1
  C  C22  1  0.10882058  0.44105093  0.31529820  1
  N  N23  1  0.18380902  0.46504197  0.46252911  1
  Zn  Zn24  1  0.19208584  0.46607654  0.38008922  1
  N  N25  1  0.03713094  0.49730757  0.19585338  1
  N  N26  1  0.03427161  0.18847016  0.08710480  1
  N  N27  1  0.20953713  0.25118930  0.20166991  1
  N  N28  1  0.21872126  0.47904963  0.03772924  1
  N  N29  1  0.17761045  0.26960714  0.11079588  1
  C  C30  1  0.09363141  0.36120240  0.15323278  1
  C  C31  1  0.05280851  0.32489815  0.16119381  1
  N  N32  1  0.09430306  0.40248560  0.18780571  1
  C  C33  1  0.05468116  0.23686074  0.08872128  1
  N  N34  1  0.08746409  0.24246985  0.05245114  1
  N  N35  1  0.08527872  0.34591788  0.33636843  1
  N  N36  1  0.13852469  0.41925034  0.35066126  1
  N  N37  1  0.09658978  0.37845153  0.01228880  1
  N  N38  1  0.07692680  0.40753975  0.29852135  1
  N  N39  1  0.16443782  0.41441750  0.13460446  1
  Zn  Zn40  1  0.13785162  0.31145075  0.04547179  1
  Zn  Zn41  1  0.03007305  0.42172567  0.23366864  1
  N  N42  1  0.14518956  0.43830940  0.17306361  1
  N  N43  1  0.12064383  0.35271604  0.36372898  1
  C  C44  1  0.22681023  0.18778288  0.37872434  1
  N  N45  1  0.13369764  0.00538865  0.33199539  1
  N  N46  1  0.06202249  0.15189935  0.03216785  1
  N  N47  1  0.14589078  0.01604864  0.43099750  1
  C  C48  1  0.12447181  0.49754072  0.29853647  1
  N  N49  1  0.24468868  0.23641781  0.36863961  1
  N  N50  1  0.01274638  0.09578513  0.29248866  1
  N  N51  1  0.03097105  0.11951488  0.25319714  1
  N  N52  1  0.22957334  0.21349310  0.14573682  1
  N  N53  1  0.24389505  0.07652874  0.25264452  1
  H  H54  1  0.14903517  0.47895999  0.01829257  1
  N  N55  1  0.08901968  0.18348571  0.01140942  1
  N  N56  1  0.09162039  0.11652085  0.76738889  1
  N  N57  1  0.10159727  0.06890406  0.76353573  1
  N  N58  1  0.14400086  0.15224775  0.77072961  1
  H  H59  1  0.14636712  0.20339773  0.95079125  1
  N  N60  1  0.17762588  0.22234868  0.94984060  1
  N  N61  1  0.16330821  0.06825693  0.75456500  1
  C  C62  1  0.17732129  0.11869572  0.75932224  1
  C  C63  1  0.22754609  0.12962381  0.74654036  1
  N  N64  1  0.15401641  0.02185143  0.50448063  1
  N  N65  1  0.22622509  0.17572983  0.95586465  1
  Zn  Zn66  1  0.21014691  0.00983687  0.72484151  1
  N  N67  1  0.00516658  0.34494969  0.61661999  1
  N  N68  1  0.17711122  0.27944760  0.91357317  1
  C  C69  1  0.18786834  0.42339882  0.68071728  1
  N  N70  1  0.13542926  0.44576418  0.50479774  1
  N  N71  1  0.02207931  0.38975018  0.60692362  1
  N  N72  1  0.19969354  0.46850791  0.67977447  1
  C  C73  1  0.09647291  0.48804797  0.80381348  1
  C  C74  1  0.05207394  0.48969561  0.76969985  1
  N  N75  1  0.08300631  0.28084484  0.78075838  1
  N  N76  1  0.20262476  0.47280792  0.55433505  1
  N  N77  1  0.01257307  0.32618507  0.74803418  1
  N  N78  1  0.14987922  0.27104175  0.69596532  1
  N  N79  1  0.10937302  0.18361857  0.63249807  1
  N  N80  1  0.01418256  0.47146788  0.79634786  1
  Zn  Zn81  1  0.14482336  0.23780543  0.77708472  1
  C  C82  1  0.16252579  0.32172788  0.68896628  1
  C  C83  1  0.10872318  0.31705393  0.86532054  1
  Zn  Zn84  1  0.02347614  0.41742958  0.86392751  1
  C  C85  1  0.11442124  0.34252365  0.92105252  1
  N  N86  1  0.17882632  0.23780673  0.58102572  1
  N  N87  1  0.21470947  0.26361457  0.78246632  1
  N  N88  1  0.03754158  0.34677757  0.80966644  1
  N  N89  1  0.08831039  0.46003821  0.85072198  1
  C  C90  1  0.08788625  0.38293667  0.95800472  1
  C  C91  1  0.17412175  0.36986285  0.68522405  1
  N  N92  1  0.13418837  0.24587415  0.62862677  1
  H  H93  1  0.11297374  0.27120156  0.60895012  1
  N  N94  1  0.05701244  0.41796828  0.94256731  1
  C  C95  1  0.07403486  0.31747498  0.81793703  1
  H  H96  1  0.20923355  0.29569063  0.90340277  1
  N  N97  1  0.14656584  0.32369432  0.95446060  1
  N  N98  1  0.03573751  0.28771960  0.73283233  1
  N  N99  1  0.14158019  0.45916136  0.88682031  1
  N  N100  1  0.13772220  0.27723564  0.85752344  1
  N  N101  1  0.14596410  0.45371509  0.55414241  1
  N  N102  1  0.17667791  0.19166219  0.56376526  1
  N  N103  1  0.12949302  0.15476206  0.59776667  1
  N  N104  1  0.16745012  0.48598917  0.85731621  1
  N  N105  1  0.24898535  0.08585687  0.73154378  1
  C  C106  1  0.21527792  0.47883400  0.50189126  1
  N  N107  1  0.24426986  0.01027175  0.65005498  1
  N  N108  1  0.23361528  0.32386755  0.81113238  1
  N  N109  1  0.23291130  0.05750378  0.59563090  1
  Zn  Zn110  1  0.12962299  0.62676868  0.17580969  1
  N  N111  1  0.13062336  0.57842277  0.24896198  1
  N  N112  1  0.20305117  0.62351829  0.17621554  1
  N  N113  1  0.13908922  0.60850788  0.09425037  1
  N  N114  1  0.10413843  0.69475272  0.21443081  1
  N  N115  1  0.11175007  0.71275575  0.28519202  1
  N  N116  1  0.11649813  0.62501777  0.04963003  1
  N  N117  1  0.06823292  0.57748028  0.18074765  1
  C  C118  1  0.06638864  0.71983052  0.19859664  1
  C  C119  1  0.08573294  0.66663489  0.06354346  1
  C  C120  1  0.06317328  0.69773973  0.09285886  1
  N  N121  1  0.17340654  0.57550086  0.29909363  1
  H  H122  1  0.20458468  0.57281536  0.27605454  1
  N  N123  1  0.21604944  0.62929249  0.36618470  1
  N  N124  1  0.18266986  0.56006029  0.07241492  1
  C  C125  1  0.22324416  0.55626037  0.09803640  1
  C  C126  1  0.04334219  0.72344467  0.14024875  1
  C  C127  1  0.23229499  0.59395142  0.14654533  1
  N  N128  1  0.08913743  0.96927157  0.46813893  1
  C  C129  1  0.10264029  0.97644576  0.35818729  1
  Zn  Zn130  1  0.02876306  0.92436717  0.48065834  1
  N  N131  1  0.08139600  0.74503399  0.29500048  1
  C  C132  1  0.06827455  0.94764294  0.32552228  1
  N  N133  1  0.00331096  0.52744119  0.14279909  1
  N  N134  1  0.04575405  0.75177360  0.23556820  1
  N  N135  1  0.17668356  0.63247904  0.34801183  1
  C  C136  1  0.04154171  0.92825489  0.29125773  1
  N  N137  1  0.02187241  0.57040288  0.13215145  1
  C  C138  1  0.06703320  0.53312644  0.21062215  1
  N  N139  1  0.23306046  0.66326881  0.22340464  1
  C  C140  1  0.10615030  0.53538112  0.25459110  1
  N  N141  1  0.02626594  0.72498710  0.45569900  1
  N  N142  1  0.00917244  0.75739966  0.14576888  1
  N  N143  1  0.00902162  0.90792316  0.25350942  1
  N  N144  1  0.16067708  0.51550759  0.32431275  1
  C  C145  1  0.24526509  0.50878045  0.07095849  1
  C  C146  1  0.10975839  0.98271801  0.42198844  1
  N  N147  1  0.17747580  0.50393336  0.02981979  1
  N  N148  1  0.00312426  0.70450519  0.35850505  1
  C  C149  1  0.04089051  0.51316291  0.71481270  1
  N  N150  1  0.18874019  0.61353352  0.78297711  1
  Zn  Zn151  1  0.13908929  0.64810576  0.85512189  1
  N  N152  1  0.11663883  0.59112956  0.60585741  1
  N  N153  1  0.22037727  0.55907168  0.68035712  1
  N  N154  1  0.07327716  0.87325645  0.52994387  1
  N  N155  1  0.19018157  0.70270245  0.87547650  1
  N  N156  1  0.09089705  0.68637060  0.90661234  1
  N  N157  1  0.09747786  0.66564148  0.79352933  1
  N  N158  1  0.08007492  0.58571175  0.58089829  1
  N  N159  1  0.11048614  0.58398305  0.89993973  1
  H  H160  1  0.13931230  0.55953295  0.90025207  1
  C  C161  1  0.10553600  0.70420966  0.75703983  1
  N  N162  1  0.04826134  0.63008056  0.76882847  1
  N  N163  1  0.07499117  0.71079876  0.71818553  1
  N  N164  1  0.11372053  0.54701981  0.66330279  1
  N  N165  1  0.03347975  0.65742054  0.73069359  1
  C  C166  1  0.06975552  0.53699639  0.66748217  1
  C  C167  1  0.05224600  0.66548080  0.93207109  1
  N  N168  1  0.07210003  0.56874887  0.92769534  1
  N  N169  1  0.04336379  0.54795221  0.62369617  1
  C  C170  1  0.04288278  0.60777062  0.94448718  1
  N  N171  1  0.04222055  0.74437553  0.55339341  1
  N  N172  1  0.02422142  0.70348454  0.94526088  1
  C  C173  1  0.01325114  0.87302880  0.59304157  1
  N  N174  1  0.23799464  0.98611667  0.86157268  1
  C  C175  1  0.14105044  0.74993124  0.75622917  1
  C  C176  1  0.18318540  0.76542406  0.79091601  1
  N  N177  1  0.22392632  0.63802200  0.76929080  1
  N  N178  1  0.05143415  0.76691067  0.92917623  1
  N  N179  1  0.24665541  0.98165649  0.78662994  1
  N  N180  1  0.02799237  0.82293855  0.72064861  1
  N  N181  1  0.02604571  0.73573816  0.62027537  1
  H  H182  1  0.03789758  0.69880233  0.63240240  1
  C  C183  1  0.20366738  0.74342250  0.84328380  1
  N  N184  1  0.18653112  0.92805411  0.71992980  1
  C  C185  1  0.06188243  0.85424164  0.57894878  1
  N  N186  1  0.15657901  0.89325607  0.72117584  1
  N  N187  1  0.08653379  0.75675687  0.90342666  1
  N  N188  1  0.17902884  0.82778309  0.71488344  1
  Zn  Zn189  1  0.16535316  0.53101866  0.72291934  1
  Zn  Zn190  1  0.07332868  0.77854094  0.66821044  1
  H  H191  1  0.19896260  0.82620097  0.67935662  1
  N  N192  1  0.14291217  0.82717397  0.55778638  1
  N  N193  1  0.09391506  0.82673080  0.60284142  1
  N  N194  1  0.13530436  0.77957902  0.71301329  1
  N  N195  1  0.22885089  0.70679202  0.93414680  1
  N  N196  1  0.20894011  0.80392971  0.77171224  1
  N  N197  1  0.02026116  0.80995970  0.79005047  1
  N  N198  1  0.24275725  0.76614800  0.85858965  1
  C  C199  1  0.00215133  0.59325567  0.97636293  1
  Zn  Zn200  1  0.24536352  0.50597625  0.62516476  1
  N  N201  1  0.01239688  0.72036061  0.52539419  1
  N  N202  1  0.13860063  0.50620470  0.79609874  1
  N  N203  1  0.13150189  0.85351528  0.51670186  1
  N  N204  1  0.12211457  0.99771890  0.52618360  1
  H  H205  1  0.33850927  0.07060689  0.24261102  1
  N  N206  1  0.32850401  0.16032612  0.21374674  1
  N  N207  1  0.32623532  0.10518963  0.25789459  1
  Zn  Zn208  1  0.36923964  0.12592547  0.40463793  1
  C  C209  1  0.36380781  0.18824558  0.23155336  1
  C  C210  1  0.38467407  0.16788169  0.28390580  1
  C  C211  1  0.41810052  0.19701044  0.32198656  1
  N  N212  1  0.30682260  0.17121381  0.38569665  1
  N  N213  1  0.31392221  0.07490690  0.41079075  1
  N  N214  1  0.36399323  0.12586145  0.30658015  1
  N  N215  1  0.41970462  0.17729359  0.37288625  1
  N  N216  1  0.42297774  0.07507868  0.41540479  1
  N  N217  1  0.29171951  0.23406546  0.36201243  1
  C  C218  1  0.27059007  0.08856488  0.40171642  1
  C  C219  1  0.37881560  0.23505416  0.19358164  1
  Zn  Zn220  1  0.29673874  0.18009652  0.13787678  1
  N  N221  1  0.34723280  0.07750659  0.06106592  1
  N  N222  1  0.43770309  0.02414431  0.37355110  1
  C  C223  1  0.45790810  0.08125719  0.44968529  1
  N  N224  1  0.44716497  0.23696098  0.30995207  1
  C  C225  1  0.26562522  0.14884209  0.38651571  1
  N  N226  1  0.35240003  0.23611224  0.14932335  1
  N  N227  1  0.46183453  0.21672341  0.40502421  1
  N  N228  1  0.35603769  0.15807324  0.48490255  1
  N  N229  1  0.33362934  0.47320542  0.37194407  1
  N  N230  1  0.30337577  0.43580022  0.08177261  1
  N  N231  1  0.30665901  0.13087938  0.06553351  1
  N  N232  1  0.40932868  0.33648151  0.33145156  1
  N  N233  1  0.27091435  0.09821263  0.28510577  1
  N  N234  1  0.47916210  0.24633526  0.36900296  1
  N  N235  1  0.39604587  0.39933152  0.39506946  1
  C  C236  1  0.41205324  0.38777744  0.34478737  1
  N  N237  1  0.45350929  0.48610871  0.23314293  1
  N  N238  1  0.49563324  0.05061125  0.44204294  1
  C  C239  1  0.28067439  0.12929833  0.01887918  1
  H  H240  1  0.31182403  0.26827167  0.37183834  1
  N  N241  1  0.48810491  0.38727532  0.02329063  1
  N  N242  1  0.45151925  0.43884788  0.20285490  1
  C  C243  1  0.44198825  0.48041166  0.28623957  1
  N  N244  1  0.37503002  0.34066993  0.42448172  1
  N  N245  1  0.43562771  0.39291972  0.25277087  1
  C  C246  1  0.29501116  0.49784224  0.45344628  1
  N  N247  1  0.28152029  0.44077206  0.29981359  1
  N  N248  1  0.40722886  0.27597909  0.19689293  1
  N  N249  1  0.37374632  0.46799929  0.12270853  1
  N  N250  1  0.35795679  0.42377135  0.10953219  1
  C  C251  1  0.29239381  0.47760125  0.39480003  1
  H  H252  1  0.43474200  0.44366004  0.16619720  1
  N  N253  1  0.32369948  0.44731880  0.30395487  1
  Zn  Zn254  1  0.39353081  0.47958258  0.41884986  1
  Zn  Zn255  1  0.44452112  0.30652009  0.25978930  1
  N  N256  1  0.37282791  0.28759180  0.10653125  1
  N  N257  1  0.38616389  0.30529302  0.38987237  1
  N  N258  1  0.40360076  0.31071740  0.13296021  1
  C  C259  1  0.43054986  0.42286892  0.29706409  1
  N  N260  1  0.43172218  0.45483199  0.48786732  1
  C  C261  1  0.29126128  0.48598175  0.09013611  1
  N  N262  1  0.34048598  0.05385592  0.01701652  1
  N  N263  1  0.31099397  0.00648703  0.42772672  1
  N  N264  1  0.47770641  0.01058203  0.38624699  1
  C  C265  1  0.46097070  0.12288566  0.49437258  1
  N  N266  1  0.25753582  0.46709619  0.36004400  1
  C  C267  1  0.38716632  0.09131141  0.80563510  1
  C  C268  1  0.42391140  0.11366601  0.76713147  1
  N  N269  1  0.45956623  0.09186206  0.74434935  1
  H  H270  1  0.30908097  0.11515348  0.89318711  1
  N  N271  1  0.35841236  0.13097457  0.82006823  1
  N  N272  1  0.31538882  0.09886633  0.85541319  1
  N  N273  1  0.30010033  0.16882690  0.73882742  1
  N  N274  1  0.42675385  0.38967912  0.74515804  1
  N  N275  1  0.41698036  0.16590546  0.75817161  1
  C  C276  1  0.37035690  0.04118484  0.83118642  1
  N  N277  1  0.33541105  0.04867909  0.86429295  1
  N  N278  1  0.30035294  0.10685736  0.71146638  1
  H  H279  1  0.30326555  0.11143191  0.66909422  1
  N  N280  1  0.36636507  0.21684098  0.55208993  1
  N  N281  1  0.49534777  0.46548606  0.55133003  1
  N  N282  1  0.46284401  0.18436086  0.71466939  1
  Zn  Zn283  1  0.35686172  0.21153540  0.78063691  1
  N  N284  1  0.38795965  0.20556890  0.91746375  1
  N  N285  1  0.30952137  0.21355473  0.54308846  1
  N  N286  1  0.37844808  0.45672394  0.66429934  1
  N  N287  1  0.48528178  0.14345835  0.70611005  1
  C  C288  1  0.25735460  0.17863995  0.75120284  1
  N  N289  1  0.30573999  0.48302358  0.66173449  1
  C  C290  1  0.38678520  0.18139391  0.52028594  1
  N  N291  1  0.39837512  0.33150241  0.66436317  1
  C  C292  1  0.40791794  0.28586098  0.86045549  1
  N  N293  1  0.27500362  0.31962442  0.82169133  1
  N  N294  1  0.30162149  0.34798982  0.53695602  1
  N  N295  1  0.37006097  0.24358249  0.64119175  1
  H  H296  1  0.30349169  0.30920121  0.55401597  1
  N  N297  1  0.41796448  0.23002448  0.94413785  1
  H  H298  1  0.43497603  0.44876109  0.81095835  1
  C  C299  1  0.39173834  0.31014653  0.71534169  1
  N  N300  1  0.29726213  0.00006485  0.58478345  1
  N  N301  1  0.43580699  0.28396756  0.90405635  1
  N  N302  1  0.38158217  0.24382695  0.85527702  1
  N  N303  1  0.44897212  0.36704404  0.84569337  1
  C  C304  1  0.33462664  0.40907708  0.59178487  1
  C  C305  1  0.33773444  0.44966283  0.63946377  1
  N  N306  1  0.29749279  0.37820214  0.58610746  1
  C  C307  1  0.36694177  0.40436054  0.54318100  1
  Zn  Zn308  1  0.49757351  0.33379089  0.90262898  1
  C  C309  1  0.41785545  0.33389521  0.82378259  1
  C  C310  1  0.40776685  0.34325666  0.76335371  1
  C  C311  1  0.41559150  0.43046410  0.53355318  1
  N  N312  1  0.45539307  0.41730732  0.79917892  1
  N  N313  1  0.37432380  0.26161039  0.71270536  1
  N  N314  1  0.28943236  0.25663770  0.79550744  1
  N  N315  1  0.44458029  0.43138925  0.57514610  1
  N  N316  1  0.46475484  0.19990319  0.55144874  1
  Zn  Zn317  1  0.43310664  0.40653715  0.65894768  1
  N  N318  1  0.38599559  0.28233465  0.61372627  1
  N  N319  1  0.26276343  0.04966587  0.55972695  1
  C  C320  1  0.43585519  0.17007131  0.51987080  1
  C  C321  1  0.25221011  0.23358701  0.77788704  1
  Zn  Zn322  1  0.47560925  0.01210736  0.74559091  1
  N  N323  1  0.28920795  0.08511295  0.98929171  1
  N  N324  1  0.35133227  0.36885240  0.50903714  1
  N  N325  1  0.30159484  0.18209072  0.50443908  1
  N  N326  1  0.48708066  0.03397190  0.61093265  1
  H  H327  1  0.48587094  0.25477787  0.74045258  1
  N  N328  1  0.49310627  0.44689713  0.67036755  1
  H  H329  1  0.46834751  0.00519585  0.59136054  1
  N  N330  1  0.48795612  0.47709644  0.50238981  1
  N  N331  1  0.38547192  0.64278804  0.11869042  1
  Zn  Zn332  1  0.33601991  0.59057688  0.11657086  1
  N  N333  1  0.45248394  0.59372667  0.40432796  1
  H  H334  1  0.40691913  0.68092370  0.21027806  1
  C  C335  1  0.40786521  0.65896398  0.07376928  1
  N  N336  1  0.41258677  0.68772089  0.16929405  1
  C  C337  1  0.44297292  0.70601660  0.08136447  1
  N  N338  1  0.32701342  0.51200067  0.11495839  1
  N  N339  1  0.33800725  0.50825420  0.47037724  1
  N  N340  1  0.49091328  0.55855950  0.32328935  1
  C  C341  1  0.48584959  0.80008546  0.41491122  1
  N  N342  1  0.46602449  0.71543683  0.03408851  1
  N  N343  1  0.48574975  0.60801001  0.37579330  1
  C  C344  1  0.44165709  0.71898762  0.14290261  1
  C  C345  1  0.46578532  0.75468033  0.31830565  1
  N  N346  1  0.27088020  0.99207181  0.42123371  1
  N  N347  1  0.27438346  0.65173479  0.21535162  1
  N  N348  1  0.43305146  0.53282740  0.37368679  1
  N  N349  1  0.48477031  0.76703331  0.21956112  1
  N  N350  1  0.47138923  0.75140142  0.17214390  1
  N  N351  1  0.45755700  0.73293166  0.27694388  1
  N  N352  1  0.49696797  0.89197131  0.46061244  1
  C  C353  1  0.39238200  0.62538735  0.02617275  1
  C  C354  1  0.47573074  0.77907985  0.37006844  1
  N  N355  1  0.35742153  0.59092015  0.03804979  1
  N  N356  1  0.44574607  0.92749842  0.05160514  1
  N  N357  1  0.27587640  0.60203045  0.16397048  1
  C  C358  1  0.45406378  0.52698433  0.32524181  1
  N  N359  1  0.47590799  0.89405586  0.04619592  1
  N  N360  1  0.49647501  0.82273351  0.46284980  1
  N  N361  1  0.47308083  0.90754531  0.49954785  1
  N  N362  1  0.44939105  0.61265222  0.82410052  1
  C  C363  1  0.46317841  0.61816280  0.76826293  1
  N  N364  1  0.45358720  0.65810421  0.85438734  1
  N  N365  1  0.37700471  0.57097293  0.94375811  1
  N  N366  1  0.27827327  0.52009291  0.55023019  1
  C  C367  1  0.41401940  0.82289212  0.95197691  1
  N  N368  1  0.27001654  0.90308317  0.82098526  1
  N  N369  1  0.43019789  0.89963644  0.78360464  1
  Zn  Zn370  1  0.45776828  0.66982479  0.94107510  1
  N  N371  1  0.26819839  0.68335205  0.64277491  1
  H  H372  1  0.33912743  0.56947736  0.54047243  1
  N  N373  1  0.33559500  0.52930924  0.53707055  1
  N  N374  1  0.25756066  0.74157231  0.92230020  1
  C  C375  1  0.27842866  0.98070535  0.63127338  1
  N  N376  1  0.42318923  0.96936120  0.78030951  1
  C  C377  1  0.28827029  0.91153712  0.72634427  1
  H  H378  1  0.35424627  0.82674373  0.67250686  1
  N  N379  1  0.46390576  0.50568854  0.96838505  1
  Zn  Zn380  1  0.27701360  0.82490697  0.80855718  1
  N  N381  1  0.37005029  0.93979393  0.83701843  1
  H  H382  1  0.43682334  0.53541280  0.96739592  1
  N  N383  1  0.29970506  0.86179327  0.73591989  1
  C  C384  1  0.43013034  0.78272806  0.92877140  1
  N  N385  1  0.31616037  0.89345719  0.63691652  1
  N  N386  1  0.32050788  0.83712287  0.67599533  1
  Zn  Zn387  1  0.45618926  0.73275839  0.82537350  1
  N  N388  1  0.44876433  0.74222548  0.90355430  1
  N  N389  1  0.33824492  0.78941615  0.83598668  1
  C  C390  1  0.29673390  0.92759643  0.66497147  1
  N  N391  1  0.39729838  0.88491921  0.81375422  1
  N  N392  1  0.39844120  0.76134765  0.78519098  1
  C  C393  1  0.36149438  0.76806083  0.80410872  1
  C  C394  1  0.26182403  0.50503734  0.50115624  1
  N  N395  1  0.44976330  0.85043643  0.53997383  1
  N  N396  1  0.33367866  0.52291156  0.71261885  1
  C  C397  1  0.27018696  0.93804119  0.77904464  1
  N  N398  1  0.29275532  0.74053762  0.67504934  1
  N  N399  1  0.29312194  0.78038245  0.64526703  1
  N  N400  1  0.46212175  0.80845152  0.51905133  1
  C  C401  1  0.38859735  0.98441600  0.81714554  1
  C  C402  1  0.48237214  0.63739686  0.72720181  1
  N  N403  1  0.25233589  0.60966693  0.70788803  1
  C  C404  1  0.40556325  0.87246246  0.97631439  1
  C  C405  1  0.26259962  0.64545141  0.67148056  1
  N  N406  1  0.40969947  0.62040871  0.97627390  1
  N  N407  1  0.34908581  0.55328370  0.97839241  1
  N  N408  1  0.37397628  0.50553446  0.71614812  1
  N  N409  1  0.25036411  0.94307415  0.88132618  1
  N  N410  1  0.49180544  0.51121521  0.92848842  1
  N  N411  1  0.40037669  0.91322228  0.99753528  1
  N  N412  1  0.66646469  0.11595439  0.45746041  1
  N  N413  1  0.70005136  0.22286384  0.08921325  1
  C  C414  1  0.63512642  0.11108690  0.42732643  1
  N  N415  1  0.59036338  0.10052118  0.43107031  1
  C  C416  1  0.72232180  0.24661454  0.13074232  1
  N  N417  1  0.63378546  0.48444390  0.37600696  1
  N  N418  1  0.67299323  0.49967867  0.38785107  1
  C  C419  1  0.74094278  0.21810132  0.36241824  1
  N  N420  1  0.68705249  0.15132519  0.32222564  1
  H  H421  1  0.55970405  0.42447247  0.36871458  1
  N  N422  1  0.72286752  0.16991878  0.37637362  1
  H  H423  1  0.65264939  0.26899736  0.03379413  1
  N  N424  1  0.56451693  0.31399083  0.17191231  1
  C  C425  1  0.54228028  0.32605665  0.21966219  1
  N  N426  1  0.53704070  0.37615421  0.30791141  1
  N  N427  1  0.73581356  0.23084919  0.30978395  1
  C  C428  1  0.56694752  0.35207343  0.00624760  1
  N  N429  1  0.54646739  0.25343825  0.14676840  1
  N  N430  1  0.72270269  0.16481236  0.05172344  1
  C  C431  1  0.54997848  0.37370021  0.25589954  1
  N  N432  1  0.66287368  0.41367211  0.24499712  1
  N  N433  1  0.65051912  0.25529049  0.07278504  1
  Zn  Zn434  1  0.60698033  0.36484833  0.12848456  1
  N  N435  1  0.55421054  0.46442073  0.28556412  1
  N  N436  1  0.50866389  0.29007905  0.22934948  1
  C  C437  1  0.69182536  0.33352019  0.19382017  1
  C  C438  1  0.56019577  0.43131838  0.24225859  1
  N  N439  1  0.56504336  0.37393698  0.05878509  1
  C  C440  1  0.69381496  0.29463029  0.14587767  1
  N  N441  1  0.59441512  0.44275383  0.14497298  1
  N  N442  1  0.66183738  0.37398135  0.18554648  1
  N  N443  1  0.69196944  0.39334516  0.27639696  1
  N  N444  1  0.53641394  0.42474597  0.33654623  1
  C  C445  1  0.57926615  0.46231115  0.19275461  1
  N  N446  1  0.69375829  0.18659090  0.28509020  1
  N  N447  1  0.65723511  0.30564605  0.11460436  1
  Zn  Zn448  1  0.73907802  0.12275801  0.44324843  1
  N  N449  1  0.71488618  0.33918060  0.24196311  1
  N  N450  1  0.51627997  0.23767990  0.17955548  1
  Zn  Zn451  1  0.55433922  0.05516467  0.49036255  1
  N  N452  1  0.50960598  0.40218456  0.06541314  1
  N  N453  1  0.66552175  0.00491297  0.49933083  1
  N  N454  1  0.67578965  0.08453672  0.70558785  1
  N  N455  1  0.69673660  0.01888763  0.68838203  1
  N  N456  1  0.55382767  0.17964321  0.83787424  1
  N  N457  1  0.65061683  0.34128560  0.99837747  1
  N  N458  1  0.51757301  0.20078196  0.85474068  1
  N  N459  1  0.71044763  0.11184607  0.71265074  1
  N  N460  1  0.50641447  0.17460335  0.55567669  1
  N  N461  1  0.59845060  0.22357271  0.85787319  1
  N  N462  1  0.59478780  0.42455077  0.80660784  1
  N  N463  1  0.51609145  0.27559394  0.73032475  1
  H  H464  1  0.72120136  0.32217662  0.97739996  1
  C  C465  1  0.56473946  0.00440932  0.60498129  1
  N  N466  1  0.63685400  0.46942603  0.59643138  1
  N  N467  1  0.72355749  0.39896344  0.79553113  1
  Zn  Zn468  1  0.66738566  0.22984086  0.84500078  1
  N  N469  1  0.55107743  0.38450204  0.86944763  1
  N  N470  1  0.50731270  0.32569346  0.68652482  1
  N  N471  1  0.73333133  0.23042878  0.87620526  1
  N  N472  1  0.52536202  0.35331900  0.98195718  1
  C  C473  1  0.56365233  0.38549290  0.81675431  1
  N  N474  1  0.73729935  0.48854792  0.70101003  1
  N  N475  1  0.63970923  0.25211632  0.70580877  1
  N  N476  1  0.50374742  0.12006228  0.51132010  1
  C  C477  1  0.60852732  0.33070805  0.97674353  1
  N  N478  1  0.65426578  0.27980407  0.91946674  1
  N  N479  1  0.60876313  0.01988428  0.52403285  1
  N  N480  1  0.65464297  0.34498097  0.72490407  1
  C  C481  1  0.71874352  0.34612392  0.79716308  1
  C  C482  1  0.68223948  0.31965704  0.76242956  1
  N  N483  1  0.66539911  0.49020640  0.56425845  1
  H  H484  1  0.53523673  0.19766020  0.56256930  1
  C  C485  1  0.54627861  0.35019865  0.76799872  1
  C  C486  1  0.61051071  0.29261856  0.92927611  1
  N  N487  1  0.60854278  0.45581647  0.86964412  1
  Zn  Zn488  1  0.63348777  0.42358641  0.72940426  1
  C  C489  1  0.52805278  0.36495915  0.70934129  1
  N  N490  1  0.58511470  0.43504060  0.90630442  1
  N  N491  1  0.56468474  0.45483770  0.70517397  1
  N  N492  1  0.68540766  0.31487847  0.97208387  1
  N  N493  1  0.53305868  0.30198610  0.77843883  1
  N  N494  1  0.53546504  0.02883361  0.57172466  1
  C  C495  1  0.52866625  0.42438519  0.69364036  1
  C  C496  1  0.57927349  0.25997716  0.89221321  1
  N  N497  1  0.67181008  0.26869635  0.76857356  1
  N  N498  1  0.53276530  0.25585075  0.89076406  1
  N  N499  1  0.66130574  0.46597208  0.66179575  1
  N  N500  1  0.63158979  0.29525121  0.68299228  1
  C  C501  1  0.70443533  0.48792658  0.65863594  1
  C  C502  1  0.74275804  0.02226758  0.69198732  1
  H  H503  1  0.51769293  0.48149732  0.92739165  1
  N  N504  1  0.50673038  0.00931838  0.67061588  1
  C  C505  1  0.61182109  0.00246606  0.57640416  1
  C  C506  1  0.69850298  0.69512052  0.17754354  1
  N  N507  1  0.62527264  0.62708677  0.31521764  1
  Zn  Zn508  1  0.61376212  0.68686284  0.10768337  1
  C  C509  1  0.60750699  0.65499442  0.28262700  1
  C  C510  1  0.58602391  0.68817744  0.24326966  1
  N  N511  1  0.59368359  0.74069554  0.23215989  1
  N  N512  1  0.66580263  0.66250728  0.16107650  1
  N  N513  1  0.67371470  0.60632577  0.20032879  1
  N  N514  1  0.71312585  0.62994036  0.24919841  1
  C  C515  1  0.72330747  0.67807691  0.23086763  1
  H  H516  1  0.64626369  0.59814888  0.22118184  1
  C  C517  1  0.55520136  0.65293328  0.20542954  1
  N  N518  1  0.55748329  0.66137693  0.15078400  1
  C  C519  1  0.63790061  0.57852438  0.34477161  1
  N  N520  1  0.67958388  0.56232210  0.35990047  1
  N  N521  1  0.58725534  0.67234987  0.02811815  1
  C  C522  1  0.69058376  0.74865353  0.14960958  1
  N  N523  1  0.53524380  0.60796361  0.22080383  1
  Zn  Zn524  1  0.55245955  0.55129072  0.28014276  1
  C  C525  1  0.52814588  0.77039146  0.07110357  1
  N  N526  1  0.65198745  0.75208110  0.11984848  1
  N  N527  1  0.62939950  0.76604293  0.25938865  1
  N  N528  1  0.68448898  0.79536760  0.44520329  1
  N  N529  1  0.74859150  0.60802422  0.41713079  1
  N  N530  1  0.62859417  0.73656163  0.37091207  1
  N  N531  1  0.59830405  0.54047180  0.13832969  1
  N  N532  1  0.62757781  0.77432947  0.33994041  1
  C  C533  1  0.54261850  0.68532825  0.01600042  1
  N  N534  1  0.63120629  0.76681629  0.43963108  1
  N  N535  1  0.60639768  0.53931658  0.33942043  1
  N  N536  1  0.54415705  0.86989556  0.10663390  1
  H  H537  1  0.61091370  0.79887233  0.44260130  1
  N  N538  1  0.68290796  0.84191979  0.11537005  1
  N  N539  1  0.72347178  0.65622760  0.45907622  1
  N  N540  1  0.65129668  0.81694790  0.09118163  1
  H  H541  1  0.63287400  0.80424429  0.24417213  1
  N  N542  1  0.71344912  0.79446928  0.15459300  1
  C  C543  1  0.53740420  0.81630365  0.08665254  1
  N  N544  1  0.58084204  0.51174551  0.20455137  1
  N  N545  1  0.60558061  0.50314181  0.10639093  1
  N  N546  1  0.51993959  0.91006404  0.09700024  1
  Zn  Zn547  1  0.74122398  0.60042440  0.32565325  1
  C  C548  1  0.51033236  0.71922099  0.05504638  1
  N  N549  1  0.50306190  0.58812242  0.15970718  1
  N  N550  1  0.51893840  0.61460988  0.11988846  1
  N  N551  1  0.69177890  0.79868200  0.49603110  1
  N  N552  1  0.67773941  0.63075068  0.65737701  1
  N  N553  1  0.70847322  0.62547132  0.69336192  1
  H  H554  1  0.61318824  0.65917468  0.57730561  1
  N  N555  1  0.58200798  0.67794353  0.57082556  1
  N  N556  1  0.74351082  0.82236394  0.50829359  1
  N  N557  1  0.70913020  0.68481622  0.72968793  1
  N  N558  1  0.65785091  0.69639677  0.66401609  1
  N  N559  1  0.73938359  0.93183133  0.66636863  1
  N  N560  1  0.57654541  0.62935579  0.94193366  1
  N  N561  1  0.53557570  0.67791421  0.65248703  1
  N  N562  1  0.59340486  0.88749556  0.56723020  1
  N  N563  1  0.54328528  0.62560285  0.56603795  1
  N  N564  1  0.50628498  0.51526499  0.66989985  1
  C  C565  1  0.51266668  0.67991364  0.70004898  1
  C  C566  1  0.63107240  0.83465209  0.64128126  1
  N  N567  1  0.69013068  0.99407473  0.53925893  1
  C  C568  1  0.54967382  0.99289062  0.66464965  1
  N  N569  1  0.74329472  0.84108160  0.57386242  1
  N  N570  1  0.70550970  0.85051840  0.77147355  1
  N  N571  1  0.70417126  0.79626346  0.76963917  1
  N  N572  1  0.53410936  0.81965378  0.78103490  1
  N  N573  1  0.56055211  0.82168187  0.73998112  1
  Zn  Zn574  1  0.59133737  0.72816754  0.63649370  1
  C  C575  1  0.66042618  0.82204247  0.69223946  1
  N  N576  1  0.55613914  0.76086341  0.70109245  1
  C  C577  1  0.68117030  0.72058610  0.70556111  1
  N  N578  1  0.58037543  0.84202972  0.55596562  1
  N  N579  1  0.60238196  0.80272487  0.61054768  1
  N  N580  1  0.65252800  0.99023929  0.59592464  1
  C  C581  1  0.68133262  0.77822920  0.72532842  1
  Zn  Zn582  1  0.66370480  0.94394661  0.67302077  1
  N  N583  1  0.67161881  0.86875062  0.71359178  1
  N  N584  1  0.52129705  0.62355437  0.61019212  1
  N  N585  1  0.62770627  0.88628387  0.62941492  1
  N  N586  1  0.54750871  0.51812797  0.68252852  1
  C  C587  1  0.52576479  0.73092892  0.72916977  1
  N  N588  1  0.61085680  0.94384186  0.80326503  1
  N  N589  1  0.57102807  0.95224336  0.82048007  1
  N  N590  1  0.61131883  0.96027601  0.73116606  1
  N  N591  1  0.51489777  0.75429195  0.77970728  1
  N  N592  1  0.61086121  0.63562489  0.97170911  1
  N  N593  1  0.53958291  0.97747057  0.75784083  1
  C  C594  1  0.56994247  0.97604634  0.71927661  1
  H  H595  1  0.69928019  0.86934111  0.80960439  1
  N  N596  1  0.52722642  0.66092072  0.97033607  1
  N  N597  1  0.73073341  0.64239919  0.50822578  1
  N  N598  1  0.71425490  0.50143832  0.60566741  1
  N  N599  1  0.61963013  0.73464130  0.50274480  1
  N  N600  1  0.59053893  0.69825663  0.50095981  1
  C  C601  1  0.80582280  0.48929240  0.38600652  1
  N  N602  1  0.84286905  0.20401773  0.19826592  1
  N  N603  1  0.83606052  0.16641066  0.16713767  1
  C  C604  1  0.96673878  0.01057486  0.43171278  1
  C  C605  1  0.96318047  0.07887942  0.21170111  1
  N  N606  1  0.96371697  0.06265107  0.26357720  1
  N  N607  1  0.79538849  0.49325935  0.48337953  1
  N  N608  1  0.89413315  0.02856683  0.21476611  1
  C  C609  1  0.90223263  0.10017427  0.07912219  1
  N  N610  1  0.79520614  0.25370686  0.19117093  1
  N  N611  1  0.98416615  0.41814654  0.37046091  1
  N  N612  1  0.89150681  0.06936798  0.35228518  1
  N  N613  1  0.84706882  0.10959606  0.32805729  1
  N  N614  1  0.86187389  0.02525740  0.12076533  1
  N  N615  1  0.77280063  0.43517204  0.02848620  1
  C  C616  1  0.92098836  0.05536381  0.18051692  1
  C  C617  1  0.77428461  0.25752065  0.39080336  1
  H  H618  1  0.81118703  0.40721071  0.48077666  1
  N  N619  1  0.93371975  0.14235406  0.07727970  1
  C  C620  1  0.94623641  0.06584515  0.43592237  1
  N  N621  1  0.84612724  0.14822508  0.36110730  1
  C  C622  1  0.79538909  0.26503864  0.44615463  1
  N  N623  1  0.83751598  0.31809937  0.09889473  1
  C  C624  1  0.89642385  0.05983257  0.12639201  1
  H  H625  1  0.95041151  0.30524939  0.20707585  1
  N  N626  1  0.76150943  0.04375127  0.43578485  1
  N  N627  1  0.82776769  0.43952768  0.46430130  1
  C  C628  1  0.84538100  0.34501566  0.20753782  1
  N  N629  1  0.94614455  0.40804127  0.39110619  1
  C  C630  1  0.92387248  0.40294827  0.22683861  1
  N  N631  1  0.88682848  0.13719629  0.41131823  1
  N  N632  1  0.78887402  0.29164294  0.35193678  1
  C  C633  1  0.88816263  0.37388568  0.19225409  1
  N  N634  1  0.78434698  0.18368645  0.13110964  1
  C  C635  1  0.91018588  0.09266422  0.39881849  1
  Zn  Zn636  1  0.84469858  0.38988803  0.32942700  1
  N  N637  1  0.97929638  0.41630779  0.29666537  1
  Zn  Zn638  1  0.98014048  0.16990872  0.13740322  1
  N  N639  1  0.82302433  0.30477941  0.44884551  1
  N  N640  1  0.87547270  0.33558621  0.08489047  1
  H  H641  1  0.94847878  0.43617306  0.10844898  1
  H  H642  1  0.86198779  0.31185465  0.37056432  1
  N  N643  1  0.95248532  0.40304389  0.13111949  1
  N  N644  1  0.81750245  0.45709346  0.29453052  1
  N  N645  1  0.98357014  0.29351574  0.21318636  1
  N  N646  1  0.96182491  0.41760880  0.19933740  1
  N  N647  1  0.81992839  0.31691787  0.16966275  1
  N  N648  1  0.82651063  0.44354316  0.39450225  1
  N  N649  1  0.91086551  0.39449246  0.33309846  1
  Zn  Zn650  1  0.76882543  0.29654527  0.26494743  1
  N  N651  1  0.76237169  0.01829679  0.39122078  1
  N  N652  1  0.87712239  0.10157433  0.03266785  1
  N  N653  1  0.82743085  0.34413019  0.25759187  1
  N  N654  1  0.83086785  0.32889739  0.38236297  1
  C  C655  1  0.93472412  0.40630059  0.28749468  1
  N  N656  1  0.90282581  0.37121304  0.14124456  1
  Zn  Zn657  1  0.91426018  0.01537919  0.29999732  1
  N  N658  1  0.80256510  0.47406118  0.22453765  1
  H  H659  1  0.98595987  0.27703596  0.25325996  1
  C  C660  1  0.76733715  0.22702484  0.15142345  1
  N  N661  1  0.99361938  0.11439385  0.19636170  1
  N  N662  1  0.95626211  0.08882372  0.48516897  1
  N  N663  1  0.76161432  0.15027481  0.06734315  1
  C  C664  1  0.79954262  0.49606489  0.32456241  1
  N  N665  1  0.92456333  0.17735225  0.01722105  1
  N  N666  1  0.77639929  0.38868984  0.01162266  1
  C  C667  1  0.86494112  0.20248827  0.73509172  1
  N  N668  1  0.85692053  0.16687819  0.83123647  1
  N  N669  1  0.85097331  0.15577482  0.75758691  1
  C  C670  1  0.86861692  0.19591910  0.67152608  1
  Zn  Zn671  1  0.82871008  0.09608806  0.70830300  1
  N  N672  1  0.85421870  0.14739016  0.65513688  1
  N  N673  1  0.88836158  0.22656376  0.63275629  1
  N  N674  1  0.86670369  0.14747472  0.58310129  1
  N  N675  1  0.88631700  0.18975714  0.57126192  1
  N  N676  1  0.79598920  0.20815402  0.93894468  1
  H  H677  1  0.83930224  0.14957746  0.86453662  1
  N  N678  1  0.86507003  0.03089387  0.73205320  1
  N  N679  1  0.86644837  0.22053460  0.83101242  1
  N  N680  1  0.81866628  0.47137017  0.99723996  1
  N  N681  1  0.96797507  0.48815231  0.75864560  1
  C  C682  1  0.87123965  0.24263609  0.78004036  1
  N  N683  1  0.76482472  0.41385821  0.82103832  1
  N  N684  1  0.91255719  0.03036315  0.78158132  1
  C  C685  1  0.86377546  0.46836427  0.59625286  1
  N  N686  1  0.78344737  0.25427821  0.55151972  1
  N  N687  1  0.88092726  0.32567719  0.72494165  1
  H  H688  1  0.94911294  0.45613698  0.74917047  1
  N  N689  1  0.96067230  0.45020486  0.89245682  1
  C  C690  1  0.75837880  0.27405436  0.87686744  1
  N  N691  1  0.89050383  0.39961807  0.78642617  1
  N  N692  1  0.89263980  0.15319463  0.99302655  1
  C  C693  1  0.94015189  0.40576116  0.60930697  1
  N  N694  1  0.94650631  0.35236216  0.61657638  1
  N  N695  1  0.98425401  0.35369946  0.90829828  1
  N  N696  1  0.87876107  0.33822041  0.81864684  1
  N  N697  1  0.79415015  0.27422469  0.91295931  1
  C  C698  1  0.87661042  0.30186417  0.77689132  1
  C  C699  1  0.84585368  0.44004395  0.96853933  1
  Zn  Zn700  1  0.84431119  0.33282187  0.90285014  1
  N  N701  1  0.78046770  0.35800356  0.85660205  1
  N  N702  1  0.97806573  0.43460619  0.60420877  1
  N  N703  1  0.81835045  0.46340225  0.59502464  1
  H  H704  1  0.75970776  0.44584871  0.84778303  1
  Zn  Zn705  1  0.89095806  0.30361572  0.64270671  1
  C  C706  1  0.92748836  0.42354353  0.91922107  1
  N  N707  1  0.86150866  0.37281118  0.61227635  1
  H  H708  1  0.78725469  0.38640315  0.63980780  1
  C  C709  1  0.88835226  0.41629089  0.60761428  1
  N  N710  1  0.75878525  0.07258913  0.70043676  1
  C  C711  1  0.88867096  0.45941348  0.93287366  1
  N  N712  1  0.91482003  0.32394695  0.93404775  1
  C  C713  1  0.94102826  0.36488316  0.92355591  1
  N  N714  1  0.89170277  0.39379265  0.73505111  1
  N  N715  1  0.80590944  0.39667893  0.60431154  1
  N  N716  1  0.82775618  0.39005199  0.96771872  1
  N  N717  1  0.95509549  0.26874932  0.92950613  1
  N  N718  1  0.75360796  0.16704048  0.57422460  1
  N  N719  1  0.76387491  0.18445171  0.91554696  1
  C  C720  1  0.75083741  0.32364109  0.84122440  1
  N  N721  1  0.76312087  0.20727955  0.60108282  1
  N  N722  1  0.99358720  0.28629820  0.91602721  1
  H  H723  1  0.99765526  0.05945133  0.55272518  1
  N  N724  1  0.98740662  0.05794989  0.51310475  1
  C  C725  1  0.78209607  0.23043815  0.50245604  1
  N  N726  1  0.77207135  0.17776462  0.50353887  1
  N  N727  1  0.79372741  0.71918752  0.36546829  1
  N  N728  1  0.86166525  0.65705352  0.06877947  1
  N  N729  1  0.94886395  0.65420894  0.23553316  1
  N  N730  1  0.93647576  0.68858746  0.29705025  1
  C  C731  1  0.78817782  0.51992516  0.43712929  1
  N  N732  1  0.86014910  0.70501945  0.08233733  1
  N  N733  1  0.80771569  0.71905087  0.12204606  1
  N  N734  1  0.97893846  0.74076946  0.05388120  1
  N  N735  1  0.97167289  0.61197505  0.24232958  1
  N  N736  1  0.77577554  0.53228885  0.29546476  1
  N  N737  1  0.78194542  0.51759195  0.22633599  1
  N  N738  1  0.98074145  0.91566280  0.41482959  1
  N  N739  1  0.90010433  0.74465926  0.28083851  1
  Zn  Zn740  1  0.77227630  0.80754716  0.20341646  1
  C  C741  1  0.96997751  0.69789774  0.33120250  1
  C  C742  1  0.95826090  0.95930254  0.39885957  1
  C  C743  1  0.76376362  0.57160613  0.45052513  1
  N  N744  1  0.79724836  0.76161932  0.33998332  1
  N  N745  1  0.77104992  0.75552973  0.27389216  1
  N  N746  1  0.92037376  0.78000104  0.25354236  1
  N  N747  1  0.92657787  0.88289530  0.34736857  1
  N  N748  1  0.92328105  0.59656708  0.03121199  1
  N  N749  1  0.93044024  0.95433777  0.35523436  1
  C  C750  1  0.78283233  0.91049071  0.26781103  1
  N  N751  1  0.81676884  0.75944048  0.14826339  1
  N  N752  1  0.79443181  0.88339258  0.23118552  1
  N  N753  1  0.95445540  0.86173443  0.37965895  1
  N  N754  1  0.76164677  0.67721992  0.31772499  1
  N  N755  1  0.98306563  0.87834565  0.22611040  1
  N  N756  1  0.97988582  0.78006957  0.08401773  1
  N  N757  1  0.90943581  0.64703507  0.02831394  1
  H  H758  1  0.97600757  0.59338688  0.20196124  1
  C  C759  1  0.77308701  0.94483386  0.31344365  1
  Zn  Zn760  1  0.98618986  0.79449289  0.22069154  1
  H  H761  1  0.82780308  0.97718584  0.17836885  1
  C  C762  1  0.76983511  0.97895568  0.35062577  1
  C  C763  1  0.75115023  0.70857081  0.27496775  1
  N  N764  1  0.99128552  0.99780579  0.47477724  1
  N  N765  1  0.99231179  0.70586293  0.43167296  1
  C  C766  1  0.96539211  0.58978919  0.00238606  1
  N  N767  1  0.85913120  0.99277723  0.16663682  1
  H  H768  1  0.75449110  0.84883743  0.47983092  1
  N  N769  1  0.86552256  0.62345750  0.58023451  1
  N  N770  1  0.90809670  0.61854103  0.58747304  1
  N  N771  1  0.84310663  0.55842423  0.58392453  1
  N  N772  1  0.91911499  0.55201284  0.59425852  1
  N  N773  1  0.96548326  0.73347253  0.62606948  1
  C  C774  1  0.82388151  0.68483256  0.81814640  1
  N  N775  1  0.99406463  0.90264272  0.55489813  1
  C  C776  1  0.86000228  0.69444429  0.84313468  1
  N  N777  1  0.97905661  0.82124474  0.79914210  1
  Zn  Zn778  1  0.89238188  0.87116229  0.70641127  1
  C  C779  1  0.99002573  0.84421241  0.70251651  1
  N  N780  1  0.95286740  0.73309330  0.67527700  1
  C  C781  1  0.90034791  0.71340595  0.87558107  1
  N  N782  1  0.89477016  0.72104759  0.67527920  1
  N  N783  1  0.93112487  0.72846086  0.90207375  1
  Zn  Zn784  1  0.97756280  0.51645205  0.61553231  1
  H  H785  1  0.91784868  0.90006379  0.54960468  1
  C  C786  1  0.86928296  0.75722251  0.69550015  1
  C  C787  1  0.87917888  0.52555725  0.58973648  1
  N  N788  1  0.85647324  0.80009357  0.71086081  1
  N  N789  1  0.89753294  0.50863786  0.91822686  1
  N  N790  1  0.93972869  0.51331102  0.89065148  1
  N  N791  1  0.75635720  0.70304190  0.76906684  1
  N  N792  1  0.94261348  0.88669776  0.63924662  1
  C  C793  1  0.98275986  0.86449074  0.64375005  1
  C  C794  1  0.81612351  0.95265838  0.69109767  1
  H  H795  1  0.76608429  0.84326954  0.68150762  1
  N  N796  1  0.77739357  0.87426083  0.65676651  1
  N  N797  1  0.89000004  0.94588953  0.73659100  1
  C  C798  1  0.76670023  0.96993893  0.67862358  1
  N  N799  1  0.82677748  0.90204384  0.68636091  1
  H  H800  1  0.93492969  0.52625162  0.85131622  1
  N  N801  1  0.95565038  0.84844213  0.73803847  1
  N  N802  1  0.93948506  0.92136721  0.57750463  1
  Zn  Zn803  1  0.95469268  0.70334959  0.97933463  1
  C  C804  1  0.85397373  0.54226705  0.74338704  1
  N  N805  1  0.93697564  0.54834986  0.78040715  1
  N  N806  1  0.78421219  0.66842415  0.78718032  1
  N  N807  1  0.78318648  0.85206456  0.58965717  1
  Zn  Zn808  1  0.77890684  0.52623623  0.56742314  1
  N  N809  1  0.89581077  0.55342733  0.76623420  1
  C  C810  1  0.81602396  0.52620463  0.72552504  1
  N  N811  1  0.92797857  0.98454699  0.77848719  1
  C  C812  1  0.85624267  0.98112966  0.72045360  1
  N  N813  1  0.75978664  0.58225224  0.50467295  1
  N  N814  1  0.99678463  0.50779268  0.70060332  1
  C  C815  1  0.77304344  0.50768376  0.71174890  1
