# generated using pymatgen
data_CuH17C26O5
_symmetry_space_group_name_H-M   'P 1'
_cell_length_a   22.88084139
_cell_length_b   19.90581048
_cell_length_c   20.89534187
_cell_angle_alpha   90.00000000
_cell_angle_beta   90.00000000
_cell_angle_gamma   90.00000000
_symmetry_Int_Tables_number   1
_chemical_formula_structural   CuH17C26O5
_chemical_formula_sum   'Cu16 H272 C416 O80'
_cell_volume   9517.02776969
_cell_formula_units_Z   16
loop_
 _symmetry_equiv_pos_site_id
 _symmetry_equiv_pos_as_xyz
  1  'x, y, z'
loop_
 _atom_site_type_symbol
 _atom_site_label
 _atom_site_symmetry_multiplicity
 _atom_site_fract_x
 _atom_site_fract_y
 _atom_site_fract_z
 _atom_site_occupancy
  C  C0  1  0.41966000  0.28010677  0.14322440  1
  H  H1  1  0.17727821  0.06509922  0.17426632  1
  C  C2  1  0.42594086  0.23485235  0.02570248  1
  H  H3  1  0.09300240  0.35342068  0.14767328  1
  C  C4  1  0.05394366  0.33068726  0.12589378  1
  C  C5  1  0.08499143  0.22318147  0.17023478  1
  C  C6  1  0.23482420  0.15036268  0.04475988  1
  H  H7  1  0.45407463  0.13725384  0.06403853  1
  C  C8  1  0.25675520  0.39648289  0.11072231  1
  C  C9  1  0.23881275  0.25744733  0.23220547  1
  C  C10  1  0.44189213  0.19025488  0.07557709  1
  C  C11  1  0.27694377  0.40729939  0.03772600  1
  H  H12  1  0.10101760  0.12089303  0.20294821  1
  H  H13  1  0.38313934  0.36740408  0.10000994  1
  O  O14  1  0.29986540  0.40706128  0.15007214  1
  O  O15  1  0.38808371  0.36619212  0.21831810  1
  C  C16  1  0.13351413  0.24444256  0.21315109  1
  H  H17  1  0.34926768  0.48053617  0.05643679  1
  H  H18  1  0.15208672  0.23155445  0.08322875  1
  C  C19  1  0.03444286  0.11901727  0.14025605  1
  H  H20  1  0.46099070  0.18626429  0.17987895  1
  O  O21  1  0.20981346  0.38157156  0.13038165  1
  C  C22  1  0.11028555  0.29750127  0.01226697  1
  H  H23  1  0.34269350  0.16504460  0.15642740  1
  C  C24  1  0.41585739  0.30896872  0.20958969  1
  H  H25  1  0.32184254  0.19935150  0.04078861  1
  C  C26  1  0.04493160  0.26069857  0.12975747  1
  C  C27  1  0.07476058  0.15418841  0.17451857  1
  C  C28  1  0.28892288  0.17419000  0.07074132  1
  C  C29  1  0.32220974  0.45112923  0.02173659  1
  C  C30  1  0.30151654  0.14994068  0.13195015  1
  C  C31  1  0.19665541  0.10724401  0.07820150  1
  C  C32  1  0.28014553  0.09694782  0.23458753  1
  C  C33  1  0.40110224  0.29997921  0.02880151  1
  C  C34  1  0.20635185  0.09305962  0.14375467  1
  C  C35  1  0.42728500  0.00668828  0.15732469  1
  C  C36  1  0.26100385  0.11331157  0.16773074  1
  H  H37  1  0.47858990  0.02657961  0.24052419  1
  C  C38  1  0.42526979  0.00886867  0.09018023  1
  C  C39  1  0.44415411  0.21450878  0.13804432  1
  H  H40  1  0.15500123  0.08911838  0.05993406  1
  Cu  Cu41  1  0.30611127  0.37310404  0.23240829  1
  C  C42  1  0.19287449  0.23343145  0.19351999  1
  C  C43  1  0.40218695  0.31911835  0.09298908  1
  C  C44  1  0.09498238  0.44949680  0.04356324  1
  H  H45  1  0.20086945  0.20818030  0.14920135  1
  C  C46  1  0.47225029  0.03439964  0.05790977  1
  O  O47  1  0.03901735  0.03995972  0.15688519  1
  C  C48  1  0.00019285  0.22582717  0.09226402  1
  C  C49  1  0.14509794  0.24781039  0.03275811  1
  H  H50  1  0.28520946  0.24629787  0.22504089  1
  C  C51  1  0.03473810  0.42924913  0.04491423  1
  H  H52  1  0.12529242  0.42236379  0.07547565  1
  C  C53  1  0.47546666  0.03002831  0.18903848  1
  C  C54  1  0.01867358  0.36426198  0.07689998  1
  H  H55  1  0.35856635  0.10523234  0.01942440  1
  H  H56  1  0.08139967  0.00291982  0.02086909  1
  H  H57  1  0.47234189  0.03800294  0.00317946  1
  C  C58  1  0.23863520  0.36634210  0.00489205  1
  H  H59  1  0.20876763  0.33388043  0.02874003  1
  H  H60  1  0.07379934  0.28533149  0.28156286  1
  H  H61  1  0.41405630  0.02083653  0.45725434  1
  C  C62  1  0.26565452  0.31254330  0.33785901  1
  H  H63  1  0.08584600  0.02381502  0.41735715  1
  H  H64  1  0.15285192  0.32156614  0.36106944  1
  C  C65  1  0.16449439  0.29654024  0.31080401  1
  O  O66  1  0.31330218  0.33539033  0.30966691  1
  O  O67  1  0.25346414  0.31980970  0.39200041  1
  C  C68  1  0.02660873  0.13783208  0.35618897  1
  H  H69  1  0.17131587  0.14101811  0.31987155  1
  H  H70  1  0.20793317  0.42044509  0.35242059  1
  C  C71  1  0.08702065  0.44425183  0.43486152  1
  C  C72  1  0.12583019  0.12423979  0.32518285  1
  C  C73  1  0.05447188  0.03448150  0.30117159  1
  O  O74  1  0.45334736  0.03275948  0.34757223  1
  C  C75  1  0.44784682  0.05233353  0.48227829  1
  Cu  Cu76  1  0.39217980  0.07539181  0.30216291  1
  C  C77  1  0.12020477  0.27721350  0.27014315  1
  H  H78  1  0.16826541  0.35175058  0.45161321  1
  H  H79  1  0.40311874  0.48519742  0.29318432  1
  O  O80  1  0.10437481  0.42070593  0.38643627  1
  H  H81  1  0.28045422  0.43431013  0.37859428  1
  C  C82  1  0.11259345  0.06010666  0.30037981  1
  C  C83  1  0.22121105  0.28585602  0.28980917  1
  C  C84  1  0.08271731  0.16426352  0.35310109  1
  H  H85  1  0.09422941  0.21072161  0.37984560  1
  O  O86  1  0.24725837  0.07373144  0.27225135  1
  C  C87  1  0.23853328  0.46060247  0.37138869  1
  O  O88  1  0.03883285  0.49102561  0.42890505  1
  C  C89  1  0.49399154  0.07498757  0.44372865  1
  C  C90  1  0.01025837  0.07838174  0.32504819  1
  O  O91  1  0.00101936  0.23336557  0.41499251  1
  O  O92  1  0.33098819  0.11990675  0.25632086  1
  H  H93  1  0.21983053  0.47955248  0.41823909  1
  H  H94  1  0.14696607  0.02720785  0.27995336  1
  C  C95  1  0.10963259  0.42092210  0.49939357  1
  C  C96  1  0.15098169  0.36997422  0.49792375  1
  O  O97  1  0.42608008  0.27175468  0.25378888  1
  C  C98  1  0.47104090  0.36320588  0.66691071  1
  C  C99  1  0.08365210  0.43737458  0.55855082  1
  C  C100  1  0.21575188  0.31745926  0.70790455  1
  C  C101  1  0.44269656  0.15063759  0.66467154  1
  H  H102  1  0.21027854  0.30030619  0.54824181  1
  H  H103  1  0.07115280  0.28463515  0.67793802  1
  H  H104  1  0.39678500  0.16599459  0.56969702  1
  C  C105  1  0.44585649  0.06186940  0.54737931  1
  H  H106  1  0.19349582  0.06998825  0.72699676  1
  C  C107  1  0.35024281  0.19364999  0.65549286  1
  C  C108  1  0.39384935  0.16803485  0.62039313  1
  H  H109  1  0.41359823  0.03812383  0.57664373  1
  H  H110  1  0.39448376  0.30468366  0.64219460  1
  C  C111  1  0.41156036  0.34824746  0.66984129  1
  C  C112  1  0.43759585  0.16656627  0.73255370  1
  C  C113  1  0.11317262  0.28594915  0.70320049  1
  C  C114  1  0.31569087  0.35219411  0.73074126  1
  C  C115  1  0.10374426  0.40520309  0.61451031  1
  C  C116  1  0.37380327  0.38260184  0.71316933  1
  H  H117  1  0.27569734  0.02410304  0.72325491  1
  H  H118  1  0.01950626  0.21345789  0.70119007  1
  C  C119  1  0.17416204  0.33885724  0.55136089  1
  H  H120  1  0.27289116  0.37469650  0.64244915  1
  H  H121  1  0.05102966  0.48031647  0.56026304  1
  H  H122  1  0.49797641  0.33557378  0.63337891  1
  H  H123  1  0.08347494  0.42192867  0.65926562  1
  C  C124  1  0.14955297  0.35609205  0.61160097  1
  C  C125  1  0.33983160  0.20937548  0.71828066  1
  C  C126  1  0.49173899  0.10560209  0.57071958  1
  C  C127  1  0.15949987  0.32135836  0.67518436  1
  H  H128  1  0.33551121  0.08706419  0.72256033  1
  H  H129  1  0.30000969  0.23256521  0.73271796  1
  C  C130  1  0.26704063  0.35111388  0.68984539  1
  C  C131  1  0.01042949  0.10692315  0.61869044  1
  C  C132  1  0.49202773  0.41722570  0.70595056  1
  C  C133  1  0.03472608  0.04969367  0.65332215  1
  H  H134  1  0.02714257  0.01477562  0.51216006  1
  C  C135  1  0.15415716  0.04115230  0.74580971  1
  H  H136  1  0.07111161  0.05457306  0.68881266  1
  C  C137  1  0.49431454  0.11990558  0.64241858  1
  C  C138  1  0.43951837  0.20215713  0.96003062  1
  C  C139  1  0.47682113  0.16353451  0.84060604  1
  C  C140  1  0.39806745  0.43665814  0.75159324  1
  H  H141  1  0.38675146  0.21228287  0.81232516  1
  C  C142  1  0.22504139  0.16489329  0.85657649  1
  C  C143  1  0.18258370  0.21593480  0.85671942  1
  C  C144  1  0.16648210  0.24584159  0.79304709  1
  H  H145  1  0.12887532  0.12873113  0.80000716  1
  C  C146  1  0.11530791  0.49471482  0.99746081  1
  O  O147  1  0.24398422  0.13205281  0.80309805  1
  C  C148  1  0.15214666  0.24792141  0.91117513  1
  C  C149  1  0.21546724  0.17118957  0.97626696  1
  C  C150  1  0.44316285  0.11481788  0.87777842  1
  C  C151  1  0.28774898  0.07892889  0.81417468  1
  C  C152  1  0.42228083  0.13688053  0.94097742  1
  C  C153  1  0.03551492  0.14723734  0.96430110  1
  C  C154  1  0.11990259  0.07547472  0.78813824  1
  C  C155  1  0.06661634  0.04548235  0.81127713  1
  H  H156  1  0.43912479  0.05002446  0.79369040  1
  H  H157  1  0.07323785  0.00278542  0.93865087  1
  O  O158  1  0.00889686  0.47605252  0.78841737  1
  H  H159  1  0.32270260  0.09319106  0.84661388  1
  C  C160  1  0.29016649  0.41255762  0.92741145  1
  H  H161  1  0.25907117  0.27962110  0.86368501  1
  C  C162  1  0.09026949  0.32901513  0.95662588  1
  C  C163  1  0.11590464  0.30362200  0.89887542  1
  C  C164  1  0.33396935  0.45123627  0.95445218  1
  C  C165  1  0.47494931  0.24354368  0.92154290  1
  C  C166  1  0.05982890  0.12630936  0.90619586  1
  C  C167  1  0.17102667  0.22087497  0.97312758  1
  C  C168  1  0.24001956  0.14479433  0.92031659  1
  H  H169  1  0.09962369  0.15704037  0.89170662  1
  O  O170  1  0.06455926  0.21564478  0.78298309  1
  H  H171  1  0.11002468  0.32503031  0.85114033  1
  C  C172  1  0.38106459  0.09217672  0.97378181  1
  C  C173  1  0.26423730  0.29779987  0.81371209  1
  H  H174  1  0.06008452  0.37235554  0.95982638  1
  H  H175  1  0.27139953  0.10325501  0.92620347  1
  H  H176  1  0.25589773  0.04785825  0.84146779  1
  H  H177  1  0.21525375  0.35169408  0.89776278  1
  C  C178  1  0.42634884  0.05598720  0.84431767  1
  H  H179  1  0.35334561  0.33818728  0.82867941  1
  C  C180  1  0.24456193  0.37156411  0.93596055  1
  C  C181  1  0.37024732  0.04073630  0.93272333  1
  C  C182  1  0.03377730  0.07292659  0.86862862  1
  H  H183  1  0.38437597  0.32489983  0.98759267  1
  C  C184  1  0.31461379  0.32912524  0.79629818  1
  C  C185  1  0.48775013  0.14325709  0.77230811  1
  C  C186  1  0.49575750  0.22711869  0.86026713  1
  C  C187  1  0.21663965  0.28288220  0.77022166  1
  C  C188  1  0.38435108  0.01367830  0.87488337  1
  H  H189  1  0.36794740  0.46036275  0.78314350  1
  H  H190  1  0.48913410  0.29327862  0.93819425  1
  H  H191  1  0.34300578  0.00317054  0.75767548  1
  C  C192  1  0.11161151  0.24992528  0.76087844  1
  H  H193  1  0.47657251  0.49264652  0.78284910  1
  C  C194  1  0.31197469  0.04533506  0.75162740  1
  C  C195  1  0.00802538  0.22969280  0.75089023  1
  H  H196  1  0.36459381  0.48467322  0.92482619  1
  H  H197  1  0.05582683  0.18589373  0.99459901  1
  C  C198  1  0.38812923  0.19733615  0.76059887  1
  C  C199  1  0.45780726  0.45207064  0.75216601  1
  C  C200  1  0.33850779  0.62931200  0.13442949  1
  C  C201  1  0.32155208  0.57158567  0.17044735  1
  C  C202  1  0.01740812  0.80835432  0.05159832  1
  C  C203  1  0.32191285  0.69483321  0.15341813  1
  O  O204  1  0.15295563  0.77207000  0.07949607  1
  H  H205  1  0.30796322  0.86725875  0.23979683  1
  C  C206  1  0.34422366  0.75275619  0.11580424  1
  H  H207  1  0.10601822  0.68366719  0.10396646  1
  H  H208  1  0.38576319  0.98882421  0.06400745  1
  H  H209  1  0.44854947  0.58096067  0.08282241  1
  H  H210  1  0.09791278  0.59341476  0.10536828  1
  H  H211  1  0.05318376  0.66586622  0.19001039  1
  O  O212  1  0.13230303  0.63810013  0.23605034  1
  H  H213  1  0.49752176  0.72637467  0.07135227  1
  C  C214  1  0.07075530  0.78027443  0.15355791  1
  C  C215  1  0.13082699  0.78723465  0.13700504  1
  C  C216  1  0.44618556  0.79874376  0.21495282  1
  C  C217  1  0.29699045  0.82276190  0.21012920  1
  C  C218  1  0.28967305  0.57557250  0.22758577  1
  C  C219  1  0.36149249  0.61797786  0.06704348  1
  H  H220  1  0.37681358  0.75435957  0.07644061  1
  C  C221  1  0.16631876  0.63256926  0.17017531  1
  C  C222  1  0.45774312  0.77618828  0.15326475  1
  H  H223  1  0.16228519  0.63153058  0.06626102  1
  C  C224  1  0.03832296  0.79099515  0.21150288  1
  C  C225  1  0.01409215  0.65048218  0.15773740  1
  O  O226  1  0.04850034  0.86521874  0.04526857  1
  C  C227  1  0.13095578  0.63327579  0.10746319  1
  O  O228  1  0.33326503  0.96473942  0.16578718  1
  H  H229  1  0.20664067  0.81904204  0.19872010  1
  C  C230  1  0.41689741  0.59537711  0.04455552  1
  C  C231  1  0.26716893  0.63889573  0.24004598  1
  H  H232  1  0.33347128  0.52227180  0.15104529  1
  C  C233  1  0.21472395  0.77775651  0.07329962  1
  H  H234  1  0.22393434  0.83026296  0.09534977  1
  H  H235  1  0.23085010  0.73619507  0.10685802  1
  C  C236  1  0.49464922  0.73232670  0.12435676  1
  H  H237  1  0.27126440  0.65039499  0.03808114  1
  H  H238  1  0.41103522  0.83496289  0.22957171  1
  C  C239  1  0.32680802  0.80769028  0.15258393  1
  C  C240  1  0.31764179  0.64092459  0.02398891  1
  C  C241  1  0.02604831  0.76349158  0.10350507  1
  C  C242  1  0.15820236  0.81060112  0.19279076  1
  H  H243  1  0.18937089  0.68134812  0.17767340  1
  H  H244  1  0.19521070  0.58575596  0.17645689  1
  C  C245  1  0.28746209  0.70244956  0.21204837  1
  C  C246  1  0.27674232  0.76451271  0.24245410  1
  H  H247  1  0.48004675  0.93681205  0.03410222  1
  H  H248  1  0.01458200  0.89227261  0.14712648  1
  C  C249  1  0.37267763  0.98505817  0.19727765  1
  C  C250  1  0.24365952  0.77113202  0.00577094  1
  H  H251  1  0.29113707  0.76246534  0.00583461  1
  H  H252  1  0.40071208  0.54072583  0.22640889  1
  C  C253  1  0.46681296  0.89406239  0.00234232  1
  C  C254  1  0.25852952  0.67033611  0.35000694  1
  H  H255  1  0.05295906  0.67582379  0.43932202  1
  C  C256  1  0.24603015  0.52036997  0.32455226  1
  H  H257  1  0.06810398  0.91127956  0.32755412  1
  H  H258  1  0.26814722  0.56524284  0.34776391  1
  C  C259  1  0.48026112  0.76206110  0.26171699  1
  H  H260  1  0.09240113  0.62854778  0.35488038  1
  H  H261  1  0.21423274  0.94586311  0.25260897  1
  H  H262  1  0.01096672  0.94349719  0.41623946  1
  H  H263  1  0.21734366  0.79902244  0.45080516  1
  C  C264  1  0.04324598  0.87114722  0.30269772  1
  C  C265  1  0.13705472  0.62482601  0.47048033  1
  C  C266  1  0.09791945  0.98444000  0.45261112  1
  C  C267  1  0.25940584  0.67928931  0.46988423  1
  H  H268  1  0.34359934  0.68330948  0.30171041  1
  H  H269  1  0.13624569  0.95434723  0.43954468  1
  C  C270  1  0.22914729  0.66491161  0.41279829  1
  C  C271  1  0.21398158  0.83254905  0.40868785  1
  H  H272  1  0.47802157  0.76957706  0.31391727  1
  C  C273  1  0.22442962  0.65086485  0.29465624  1
  H  H274  1  0.20268714  0.54105490  0.31175106  1
  O  O275  1  0.45697639  0.61190654  0.37878002  1
  O  O276  1  0.27401457  0.51261034  0.26372519  1
  C  C277  1  0.25332199  0.88895641  0.40398628  1
  H  H278  1  0.45815001  0.63137273  0.28861600  1
  H  H279  1  0.44835529  0.86475397  0.43157494  1
  C  C280  1  0.32108595  0.67929826  0.34645688  1
  H  H281  1  0.15022105  0.76742396  0.36247673  1
  H  H282  1  0.25130812  0.76908903  0.28728306  1
  H  H283  1  0.40367229  0.68586638  0.40074682  1
  C  C284  1  0.21432039  0.91358112  0.29546692  1
  C  C285  1  0.16240514  0.64525460  0.29084001  1
  C  C286  1  0.16774233  0.64427169  0.40946349  1
  C  C287  1  0.35383242  0.68495400  0.40265841  1
  C  C288  1  0.17795311  0.85592311  0.30102485  1
  C  C289  1  0.17750891  0.81373364  0.35778707  1
  C  C290  1  0.13806191  0.63870695  0.35217901  1
  C  C291  1  0.29193919  0.91545976  0.45477411  1
  C  C292  1  0.07200667  0.83062519  0.25881365  1
  C  C293  1  0.32204278  0.68352871  0.46309191  1
  C  C294  1  0.40341129  0.53953678  0.28076895  1
  C  C295  1  0.25073003  0.92741418  0.34723550  1
  C  C296  1  0.07656854  0.64499967  0.47571031  1
  H  H297  1  0.36137597  0.56242814  0.29640398  1
  C  C298  1  0.45662342  0.57864277  0.30785811  1
  H  H299  1  0.45084328  0.68921398  0.47977300  1
  H  H300  1  0.49698563  0.93971841  0.30820314  1
  H  H301  1  0.04547386  0.51296996  0.47292892  1
  C  C302  1  0.49294653  0.66388847  0.39185512  1
  O  O303  1  0.33009965  0.95617797  0.44413554  1
  C  C304  1  0.13490313  0.83265414  0.25118045  1
  C  C305  1  0.45258562  0.85577055  0.48316337  1
  C  C306  1  0.48457971  0.70713387  0.44557639  1
  H  H307  1  0.04386585  0.98820277  0.27915911  1
  H  H308  1  0.27913227  0.97098735  0.35149923  1
  O  O309  1  0.37523511  0.98857857  0.25799405  1
  O  O310  1  0.28778329  0.88513631  0.51153984  1
  O  O311  1  0.16571863  0.88490498  0.66443431  1
  C  C312  1  0.49216700  0.80987068  0.50913406  1
  Cu  Cu313  1  0.26494759  0.93010527  0.58362568  1
  H  H314  1  0.46493430  0.81844670  0.67044447  1
  C  C315  1  0.42033123  0.63740641  0.60506243  1
  O  O316  1  0.22731569  0.96571479  0.64788654  1
  H  H317  1  0.23769667  0.67535395  0.51748015  1
  C  C318  1  0.04569981  0.62726888  0.52970292  1
  C  C319  1  0.07500821  0.59380050  0.58098743  1
  C  C320  1  0.18123089  0.94040723  0.67621534  1
  C  C321  1  0.42743372  0.68609674  0.71509747  1
  C  C322  1  0.42347250  0.87627423  0.59258152  1
  O  O323  1  0.34530623  0.95082584  0.61491852  1
  C  C324  1  0.40750356  0.69038773  0.64957405  1
  H  H325  1  0.32255339  0.78810630  0.55049788  1
  H  H326  1  0.44264324  0.59370646  0.62562580  1
  C  C327  1  0.37382132  0.74436068  0.62675546  1
  C  C328  1  0.14321083  0.97519417  0.72452737  1
  C  C329  1  0.39391456  0.63271240  0.54636363  1
  C  C330  1  0.34867686  0.74373360  0.56593456  1
  H  H331  1  0.36217551  0.78448750  0.65901689  1
  H  H332  1  0.15650797  0.54716638  0.61878692  1
  O  O333  1  0.38396067  0.90036806  0.69736021  1
  C  C334  1  0.38247131  0.90930000  0.64011316  1
  C  C335  1  0.16360036  0.58924964  0.52151185  1
  C  C336  1  0.13557457  0.57455726  0.57872371  1
  O  O337  1  0.06597491  0.53908627  0.68174077  1
  C  C338  1  0.46236951  0.82635521  0.61838386  1
  C  C339  1  0.49987512  0.79534924  0.57698519  1
  C  C340  1  0.04119648  0.56933256  0.63569019  1
  C  C341  1  0.35655542  0.68719086  0.52447618  1
  O  O342  1  0.45557187  0.63214317  0.72635844  1
  C  C343  1  0.41674941  0.89111842  0.52777734  1
  H  H344  1  0.38439519  0.92869561  0.50944562  1
  H  H345  1  0.07070247  0.94657944  0.54495750  1
  H  H346  1  0.20883549  0.57443783  0.51677719  1
  H  H347  1  0.40132997  0.58690828  0.51822983  1
  C  C348  1  0.06643034  0.98242197  0.50631114  1
  H  H349  1  0.08820697  0.88780239  0.74268726  1
  H  H350  1  0.01103856  0.93911088  0.66371036  1
  H  H351  1  0.49355733  0.97950074  0.60694488  1
  C  C352  1  0.33161653  0.83077421  0.91178455  1
  H  H353  1  0.38412312  0.93736824  0.97058636  1
  C  C354  1  0.10292140  0.56253097  0.89981663  1
  C  C355  1  0.38564922  0.61464590  0.93618807  1
  O  O356  1  0.31846040  0.77331830  0.88138978  1
  C  C357  1  0.05686475  0.97793054  0.79095014  1
  Cu  Cu358  1  0.36251927  0.74565351  0.81335540  1
  C  C359  1  0.07501473  0.52281192  0.95462130  1
  C  C360  1  0.40159355  0.61976218  0.86768208  1
  C  C361  1  0.42539435  0.77083342  0.94592494  1
  H  H362  1  0.40770137  0.72433727  0.92469446  1
  H  H363  1  0.37187339  0.96393584  0.85362624  1
  O  O364  1  0.36661230  0.64742680  0.83135282  1
  H  H365  1  0.29379640  0.64967408  0.92549451  1
  H  H366  1  0.24010798  0.81822732  0.98170525  1
  Cu  Cu367  1  0.05981333  0.55470467  0.76855605  1
  H  H368  1  0.05367890  0.79024788  0.89763713  1
  C  C369  1  0.04311503  0.90631048  0.98605951  1
  C  C370  1  0.48015116  0.77619816  0.97428114  1
  O  O371  1  0.44550073  0.58709843  0.84642253  1
  C  C372  1  0.39158972  0.82937925  0.94326412  1
  C  C373  1  0.00971405  0.76444295  0.80612809  1
  O  O374  1  0.30336972  0.88003946  0.90384681  1
  O  O375  1  0.15329040  0.57130818  0.89460383  1
  H  H376  1  0.04482126  0.88012548  0.94062909  1
  H  H377  1  0.03674359  0.71841943  0.80039518  1
  C  C378  1  0.02378664  0.80567607  0.85871383  1
  C  C379  1  0.41184848  0.89024281  0.97257954  1
  O  O380  1  0.06414466  0.58186571  0.85504604  1
  H  H381  1  0.02230248  0.94892333  0.81683686  1
  C  C382  1  0.33034189  0.63440165  0.95889119  1
  O  O383  1  0.41970464  0.73529892  0.75099480  1
  H  H384  1  0.46955531  0.56906400  0.96248730  1
  C  C385  1  0.42877439  0.58887445  0.97941773  1
  C  C386  1  0.08318777  0.96767438  0.97864308  1
  C  C387  1  0.09454853  0.94146669  0.75179728  1
  C  C388  1  0.01413303  0.50951342  0.95936119  1
  H  H389  1  0.16183594  0.50574327  0.99093453  1
  H  H390  1  0.22340010  0.73221209  0.97783561  1
  H  H391  1  0.12891327  0.95287130  0.97848383  1
  H  H392  1  0.55021467  0.09789946  0.18259285  1
  H  H393  1  0.72319244  0.08571204  0.08349114  1
  C  C394  1  0.82092103  0.44779143  0.17825824  1
  C  C395  1  0.90436645  0.13525456  0.18433618  1
  H  H396  1  0.78283104  0.06837787  0.13512486  1
  H  H397  1  0.94771584  0.10634328  0.18598632  1
  H  H398  1  0.67705219  0.39795870  0.10929464  1
  C  C399  1  0.55980550  0.29972910  0.06529981  1
  O  O400  1  0.76514171  0.23218211  0.07983179  1
  C  C401  1  0.99726709  0.00528722  0.14286627  1
  C  C402  1  0.76817318  0.23130797  0.01762831  1
  H  H403  1  0.98774084  0.44804646  0.14383078  1
  H  H404  1  0.91300381  0.18429947  0.15997989  1
  C  C405  1  0.96889428  0.33024978  0.05137776  1
  H  H406  1  0.71576182  0.09329595  0.16907934  1
  Cu  Cu407  1  0.71144854  0.27225915  0.13497154  1
  H  H408  1  0.55637549  0.27094798  0.10899826  1
  C  C409  1  0.54010267  0.37476400  0.07337511  1
  O  O410  1  0.87629517  0.09489957  0.13293210  1
  C  C411  1  0.52289391  0.06288062  0.08964530  1
  H  H412  1  0.93893742  0.35984485  0.02201038  1
  C  C413  1  0.73478421  0.06240456  0.13125246  1
  O  O414  1  0.64609941  0.30330155  0.18019072  1
  C  C415  1  0.91460384  0.39106371  0.17180728  1
  H  H416  1  0.53360768  0.27430165  0.02657817  1
  C  C417  1  0.79836819  0.43309210  0.02045154  1
  H  H418  1  0.84023453  0.30326370  0.02128783  1
  C  C419  1  0.85303496  0.38724593  0.17951356  1
  H  H420  1  0.54026908  0.19242590  0.07743281  1
  H  H421  1  0.57394946  0.40714929  0.09466069  1
  C  C422  1  0.95836633  0.26324636  0.05484474  1
  H  H423  1  0.77623380  0.43833635  0.18967452  1
  O  O424  1  0.76535299  0.31955202  0.18437391  1
  C  C425  1  0.90402634  0.09086087  0.07471219  1
  O  O426  1  0.62066782  0.27219132  0.03642585  1
  C  C427  1  0.52103194  0.06569484  0.15751753  1
  C  C428  1  0.57389680  0.09522688  0.05692220  1
  C  C429  1  0.87514653  0.06174669  0.02231874  1
  C  C430  1  0.65327701  0.34638097  0.22566476  1
  C  C431  1  0.96037916  0.11282600  0.05330118  1
  C  C432  1  0.82326703  0.31960189  0.18681791  1
  C  C433  1  0.67968946  0.43527970  0.14862627  1
  H  H434  1  0.92126580  0.24115163  0.03123281  1
  H  H435  1  0.96289238  0.03444847  0.11965286  1
  H  H436  1  0.82862264  0.04887262  0.03676988  1
  C  C437  1  0.57998868  0.16599726  0.05898524  1
  C  C438  1  0.62468389  0.20590541  0.03402405  1
  C  C439  1  0.93960633  0.44880986  0.15115934  1
  H  H440  1  0.79817794  0.39664045  0.06209689  1
  H  H441  1  0.94036821  0.34419847  0.17892376  1
  C  C442  1  0.67661321  0.41552667  0.21337091  1
  O  O443  1  0.84974570  0.27026521  0.20091293  1
  C  C444  1  0.99687382  0.15359762  0.10035292  1
  C  C445  1  0.67018220  0.16469680  0.00694405  1
  H  H446  1  0.52596758  0.40029179  0.02735963  1
  C  C447  1  0.69779944  0.49927806  0.13612987  1
  H  H448  1  0.50404874  0.37685567  0.10779306  1
  C  C449  1  0.61832501  0.05743351  0.02467734  1
  C  C450  1  0.84584419  0.48043257  0.00575029  1
  C  C451  1  0.99245171  0.47190640  0.01042403  1
  H  H452  1  0.94557193  0.47272586  0.01681312  1
  C  C453  1  0.50013993  0.06346178  0.37305678  1
  O  O454  1  0.65070456  0.33498730  0.28209758  1
  O  O455  1  0.92895214  0.16445855  0.38930593  1
  H  H456  1  0.96170400  0.06765721  0.32462722  1
  O  O457  1  0.79855932  0.23174162  0.47848782  1
  C  C458  1  0.98311377  0.18299276  0.39048862  1
  O  O459  1  0.53986262  0.08453042  0.34310491  1
  C  C460  1  0.83643940  0.06185705  0.42035144  1
  H  H461  1  0.68944541  0.43538457  0.31202704  1
  O  O462  1  0.78494103  0.06590475  0.40116649  1
  C  C463  1  0.87466015  0.01098521  0.39336869  1
  C  C464  1  0.53904615  0.11945148  0.46818558  1
  Cu  Cu465  1  0.86219346  0.19539914  0.43714011  1
  Cu  Cu466  1  0.72238284  0.08217139  0.45208533  1
  H  H467  1  0.57483025  0.14026536  0.43704560  1
  H  H468  1  0.90943492  0.15678125  0.29014859  1
  O  O469  1  0.71416583  0.17472706  0.47561884  1
  O  O470  1  0.85426966  0.10393296  0.46262249  1
  C  C471  1  0.69137191  0.45723072  0.26400573  1
  H  H472  1  0.94264159  0.02991189  0.45923885  1
  O  O473  1  0.66848492  0.03759520  0.49955014  1
  H  H474  1  0.63464099  0.46939825  0.41061157  1
  C  C475  1  0.93084429  0.00154697  0.41644565  1
  H  H476  1  0.83703315  0.17157836  0.25451919  1
  C  C477  1  0.87629441  0.13853047  0.25218810  1
  H  H478  1  0.86449477  0.08480640  0.27094936  1
  O  O479  1  0.57065385  0.48825126  0.74024813  1
  H  H480  1  0.66959711  0.13243703  0.69583029  1
  H  H481  1  0.67051430  0.14656113  0.57427908  1
  O  O482  1  0.58894466  0.42067462  0.66463502  1
  C  C483  1  0.95458665  0.11571784  0.58197358  1
  H  H484  1  0.93787866  0.16390407  0.55639798  1
  C  C485  1  0.55428550  0.43802742  0.70405700  1
  C  C486  1  0.69957778  0.16452861  0.66984204  1
  C  C487  1  0.70096953  0.17324177  0.60491889  1
  C  C488  1  0.79408819  0.23775023  0.60910007  1
  C  C489  1  0.74794878  0.20544020  0.57436652  1
  H  H490  1  0.82675343  0.26378350  0.69876100  1
  C  C491  1  0.61737425  0.28758905  0.74202253  1
  H  H492  1  0.57388084  0.16321645  0.55585071  1
  C  C493  1  0.78873077  0.23809673  0.67509834  1
  C  C494  1  0.74192918  0.20057892  0.70656611  1
  H  H495  1  0.58067533  0.07538190  0.66401292  1
  H  H496  1  0.82684123  0.26957885  0.58688877  1
  H  H497  1  0.52817556  0.23984608  0.73206351  1
  C  C498  1  0.75392197  0.20642591  0.50542277  1
  C  C499  1  0.54109589  0.09984217  0.68376621  1
  C  C500  1  0.53890957  0.13105849  0.53272682  1
  C  C501  1  0.92649863  0.05472481  0.57554353  1
  H  H502  1  0.88765598  0.04672978  0.54682271  1
  H  H503  1  0.64198169  0.03747522  0.72906830  1
  H  H504  1  0.62226124  0.28058634  0.69017857  1
  H  H505  1  0.57358510  0.02412881  0.54381769  1
  H  H506  1  0.93816952  0.15510089  0.73922339  1
  C  C507  1  0.53644729  0.11028244  0.74959972  1
  C  C508  1  0.92102725  0.42563914  0.81851035  1
  O  O509  1  0.67432555  0.44590957  0.87329439  1
  H  H510  1  0.99608344  0.38361205  0.86827665  1
  C  C511  1  0.77764873  0.23800738  0.88012518  1
  H  H512  1  0.65622054  0.26844735  0.76825238  1
  C  C513  1  0.72329707  0.20012796  0.98063455  1
  C  C514  1  0.62077069  0.03259826  0.77991827  1
  H  H515  1  0.91575284  0.23569742  0.77599790  1
  C  C516  1  0.95332045  0.47818098  0.78574272  1
  H  H517  1  0.93896757  0.30107946  0.92976741  1
  C  C518  1  0.97718187  0.04500110  0.88149324  1
  H  H519  1  0.77665958  0.37248941  0.83770683  1
  H  H520  1  0.95669145  0.16971216  0.82050907  1
  C  C521  1  0.85983241  0.42157778  0.81184722  1
  C  C522  1  0.68865203  0.16715809  0.87073700  1
  C  C523  1  0.89515261  0.04599666  0.96091382  1
  C  C524  1  0.84348644  0.05738242  0.85792305  1
  C  C525  1  0.66326185  0.00121727  0.83219675  1
  C  C526  1  0.81666287  0.27648415  0.92209869  1
  C  C527  1  0.94798585  0.37784538  0.86030446  1
  C  C528  1  0.85759040  0.01322744  0.91067202  1
  C  C529  1  0.72818365  0.20310859  0.91267902  1
  C  C530  1  0.66984008  0.09385806  0.99905775  1
  C  C531  1  0.74022584  0.20567566  0.77765023  1
  C  C532  1  0.81053652  0.27212526  0.98710888  1
  C  C533  1  0.95484140  0.06752763  0.94263873  1
  H  H534  1  0.71855043  0.40671924  0.97463356  1
  H  H535  1  0.76221044  0.09594088  0.95902279  1
  C  C536  1  0.72139283  0.06703993  0.96885783  1
  C  C537  1  0.91545326  0.33026824  0.89210698  1
  C  C538  1  0.85257342  0.32867721  0.88677200  1
  H  H539  1  0.85320965  0.11183709  0.86418046  1
  C  C540  1  0.98699060  0.10900246  0.99019329  1
  C  C541  1  0.81776851  0.03136336  0.80303037  1
  H  H542  1  0.65259296  0.13977552  0.89773355  1
  H  H543  1  0.65973201  0.13824699  0.77540254  1
  C  C544  1  0.82535808  0.37478091  0.84355679  1
  C  C545  1  0.75780954  0.43571860  0.97282745  1
  H  H546  1  0.95613018  0.00408145  0.85468966  1
  C  C547  1  0.69275574  0.16639198  0.80476901  1
  C  C548  1  0.78495888  0.23957913  0.81197631  1
  H  H549  1  0.83910554  0.46185055  0.78355492  1
  O  O550  1  0.58221920  0.08913390  0.79293745  1
  C  C551  1  0.72437573  0.47670712  0.86734375  1
  H  H552  1  0.81780875  0.26517651  0.78728383  1
  Cu  Cu553  1  0.61911165  0.47428882  0.81121658  1
  O  O554  1  0.52902843  0.27407204  0.82431065  1
  H  H555  1  0.99940250  0.28320556  0.75475822  1
  C  C556  1  0.76866845  0.47594859  0.91709729  1
  H  H557  1  0.70450857  0.02947606  0.84103561  1
  C  C558  1  0.95001083  0.19509227  0.77339802  1
  H  H559  1  0.58445656  0.48135857  0.98572836  1
  H  H560  1  0.57691199  0.20831057  0.79947389  1
  C  C561  1  0.56164204  0.25389456  0.76890554  1
  H  H562  1  0.61722261  0.34271179  0.75260761  1
  H  H563  1  0.80723789  0.06409172  0.76107700  1
  C  C564  1  0.93526444  0.73156192  0.01594396  1
  C  C565  1  0.61316282  0.85918084  0.13697058  1
  H  H566  1  0.68320897  0.73335091  0.05968863  1
  C  C567  1  0.97943761  0.59426338  0.16591300  1
  H  H568  1  0.67261358  0.97603323  0.14863972  1
  H  H569  1  0.87998574  0.61037831  0.04381198  1
  C  C570  1  0.66782994  0.84307769  0.10531243  1
  C  C571  1  0.74860334  0.87890478  0.18569320  1
  C  C572  1  0.90572813  0.50930060  0.13955785  1
  C  C573  1  0.99761101  0.69725863  0.10907538  1
  C  C574  1  0.71981183  0.98511378  0.13798941  1
  C  C575  1  0.97833874  0.93274799  0.15626728  1
  C  C576  1  0.67078661  0.83538951  0.03692138  1
  H  H577  1  0.57412606  0.95533203  0.02694709  1
  C  C578  1  0.75188322  0.72968405  0.20895733  1
  C  C579  1  0.58143561  0.53198705  0.00281181  1
  C  C580  1  0.61080798  0.98621881  0.01352356  1
  H  H581  1  0.58318549  0.72596226  0.06473445  1
  C  C582  1  0.52488322  0.69104643  0.17208598  1
  C  C583  1  0.69929168  0.64302754  0.11551860  1
  H  H584  1  0.70924174  0.51952833  0.08869820  1
  H  H585  1  0.72840951  0.95887365  0.08991580  1
  O  O586  1  0.61123356  0.87743588  0.19855933  1
  C  C587  1  0.56338884  0.63685997  0.15658476  1
  H  H588  1  0.77500982  0.83518049  0.01935550  1
  H  H589  1  0.82233077  0.55395572  0.15794332  1
  C  C590  1  0.70572863  0.71124324  0.10213245  1
  H  H591  1  0.52442545  0.93309786  0.19359311  1
  C  C592  1  0.56592508  0.85466292  0.09593932  1
  H  H593  1  0.81611621  0.69177141  0.03342736  1
  C  C594  1  0.94708203  0.68617532  0.06841133  1
  C  C595  1  0.91857232  0.62278412  0.07314099  1
  H  H596  1  0.67224651  0.60866959  0.08377611  1
  C  C597  1  0.71867134  0.83051525  0.14873040  1
  H  H598  1  0.61329523  0.55247242  0.19315382  1
  C  C599  1  0.57953963  0.67224988  0.04577139  1
  C  C600  1  0.93424139  0.57676683  0.12061160  1
  C  C601  1  0.74137989  0.66152413  0.22303628  1
  C  C602  1  0.72895488  0.75684387  0.14867319  1
  H  H603  1  0.95530240  0.73472361  0.19871965  1
  C  C604  1  0.58792739  0.59842269  0.20585513  1
  O  O605  1  0.75022012  0.94868966  0.18854094  1
  C  C606  1  0.57882609  0.61661169  0.08948215  1
  C  C607  1  0.71639249  0.61861469  0.17668698  1
  C  C608  1  0.70581114  0.54511024  0.18814255  1
  C  C609  1  0.58293434  0.54683074  0.06827524  1
  H  H610  1  0.97551114  0.93315854  0.20974594  1
  C  C611  1  0.55105103  0.90057735  0.22601594  1
  C  C612  1  0.97114851  0.78732750  0.01175405  1
  H  H613  1  0.93740619  0.91734015  0.13464933  1
  C  C614  1  0.77562273  0.84791656  0.23634068  1
  H  H615  1  0.52372746  0.86692693  0.11757409  1
  H  H616  1  0.53640832  0.84774472  0.21682553  1
  C  C617  1  0.56299309  0.84041101  0.03204238  1
  C  C618  1  0.97786543  0.77388645  0.22442734  1
  H  H619  1  0.58604159  0.51069388  0.10942145  1
  C  C620  1  0.84697933  0.50819358  0.15891841  1
  H  H621  1  0.98637616  0.55933098  0.20602125  1
  C  C622  1  0.51763067  0.71258935  0.23969159  1
  C  C623  1  0.72702244  0.82807136  0.00323830  1
  C  C624  1  0.50194277  0.83750950  0.00182864  1
  H  H625  1  0.68505097  0.53646147  0.42230744  1
  H  H626  1  0.79477037  0.86582994  0.35054047  1
  C  C627  1  0.92577644  0.74348424  0.46940445  1
  C  C628  1  0.51937433  0.76210886  0.46003826  1
  C  C629  1  0.61036118  0.77402386  0.31285132  1
  C  C630  1  0.54956245  0.66744460  0.28405424  1
  C  C631  1  0.54363184  0.92868607  0.29468028  1
  C  C632  1  0.94735525  0.91873817  0.33870093  1
  C  C633  1  0.53531569  0.69180139  0.35073716  1
  C  C634  1  0.85824394  0.81357802  0.40554573  1
  H  H635  1  0.69242793  0.70373851  0.34967734  1
  H  H636  1  0.61204231  0.74760394  0.26614242  1
  H  H637  1  0.68226855  0.84624132  0.29011902  1
  H  H638  1  0.81003639  0.98288483  0.32078645  1
  C  C639  1  0.82099044  0.82139622  0.35491791  1
  C  C640  1  0.64980953  0.82735109  0.32652399  1
  C  C641  1  0.60273478  0.57127254  0.38009784  1
  C  C642  1  0.81645928  0.76551041  0.30982817  1
  C  C643  1  0.89215234  0.92937992  0.31125618  1
  C  C644  1  0.85314693  0.97331416  0.33971785  1
  C  C645  1  0.95038416  0.81302163  0.26881008  1
  C  C646  1  0.71927141  0.68620417  0.39084327  1
  C  C647  1  0.63458826  0.85683955  0.38386625  1
  H  H648  1  0.59440882  0.88175365  0.47837623  1
  H  H649  1  0.62136778  0.62338695  0.38549853  1
  H  H650  1  0.90363496  0.80564374  0.27801357  1
  H  H651  1  0.55951140  0.88876563  0.32964665  1
  H  H652  1  0.71394402  0.55932929  0.29290181  1
  C  C653  1  0.56281022  0.78992617  0.41994433  1
  H  H654  1  0.90828415  0.65027631  0.37455974  1
  H  H655  1  0.87653325  0.89882822  0.26895372  1
  H  H656  1  0.50058364  0.55262869  0.30326762  1
  C  C657  1  0.74567370  0.61895147  0.39652214  1
  C  C658  1  0.84801821  0.70403969  0.31525929  1
  O  O659  1  0.60881410  0.56538988  0.31191596  1
  H  H660  1  0.71507537  0.77690804  0.44867119  1
  C  C661  1  0.57137819  0.75116662  0.36015164  1
  C  C662  1  0.96904423  0.95300255  0.39270185  1
  O  O663  1  0.95389892  0.69505509  0.47859725  1
  C  C664  1  0.59727058  0.85099827  0.43502395  1
  H  H665  1  0.62714051  0.52630736  0.47819421  1
  C  C666  1  0.72883306  0.72471254  0.44636129  1
  C  C667  1  0.77153960  0.58417941  0.45189636  1
  H  H668  1  0.78457139  0.52898325  0.45038802  1
  C  C669  1  0.88410320  0.69720768  0.36709342  1
  C  C670  1  0.63695509  0.52150823  0.42501964  1
  C  C671  1  0.88770929  0.75069365  0.41169490  1
  H  H672  1  0.86764072  0.85149164  0.44277992  1
  H  H673  1  0.55456544  0.57264160  0.39201749  1
  C  C674  1  0.70550138  0.52478460  0.25265865  1
  C  C675  1  0.58395736  0.61244781  0.26917257  1
  H  H676  1  0.56739247  0.97581888  0.30229473  1
  H  H677  1  0.61250338  0.70834906  0.46466635  1
  H  H678  1  0.84866337  0.66058687  0.27850449  1
  C  C679  1  0.98129203  0.86452366  0.30390520  1
  H  H680  1  0.74921056  0.64199466  0.27154756  1
  C  C681  1  0.78048953  0.78070603  0.25251613  1
  H  H682  1  0.79657513  0.88760502  0.26699290  1
  O  O683  1  0.86710849  0.93710579  0.56820809  1
  O  O684  1  0.93071880  0.79624112  0.50898948  1
  C  C685  1  0.64943053  0.66546099  0.68055585  1
  H  H686  1  0.51449781  0.89836087  0.70299505  1
  C  C687  1  0.56124586  0.61921668  0.50807321  1
  C  C688  1  0.60873214  0.91536095  0.67224822  1
  Cu  Cu689  1  0.91857259  0.78406745  0.59118305  1
  C  C690  1  0.61588399  0.65021834  0.62141606  1
  C  C691  1  0.94568218  0.74126525  0.71349152  1
  O  O692  1  0.97719215  0.68924772  0.70042058  1
  C  C693  1  0.64276781  0.97060316  0.58937807  1
  O  O694  1  0.98612426  0.57769701  0.63830100  1
  O  O695  1  0.79276120  0.97682641  0.69254909  1
  O  O696  1  0.76300683  0.79486141  0.56405787  1
  C  C697  1  0.78946615  0.93607808  0.73904279  1
  O  O698  1  0.78489183  0.87326275  0.72607362  1
  C  C699  1  0.91580702  0.93438818  0.59873233  1
  H  H700  1  0.53800194  0.76649511  0.59398267  1
  C  C701  1  0.63107166  0.68831018  0.56676560  1
  C  C702  1  0.57464889  0.59903935  0.62026987  1
  H  H703  1  0.66193022  0.72818599  0.57121715  1
  O  O704  1  0.68664630  0.71166658  0.68507637  1
  Cu  Cu705  1  0.79762355  0.95619248  0.60473328  1
  Cu  Cu706  1  0.76842235  0.71353950  0.68826430  1
  O  O707  1  0.79057247  0.70294942  0.60705191  1
  Cu  Cu708  1  0.77976950  0.83829166  0.64487491  1
  C  C709  1  0.66000541  0.92651214  0.64097547  1
  C  C710  1  0.76900587  0.73388672  0.55817710  1
  C  C711  1  0.68319198  0.99560131  0.54142590  1
  C  C712  1  0.60515752  0.67482640  0.50764925  1
  H  H713  1  0.80249955  0.61263451  0.54855586  1
  H  H714  1  0.70481270  0.91417151  0.65571398  1
  C  C715  1  0.54470659  0.57693099  0.56363893  1
  O  O716  1  0.93307155  0.87726864  0.61760271  1
  C  C717  1  0.54854250  0.92485929  0.67303499  1
  Cu  Cu718  1  0.95967858  0.60277418  0.72243377  1
  O  O719  1  0.63774032  0.62852153  0.72737895  1
  O  O720  1  0.90544035  0.75723491  0.67642242  1
  H  H721  1  0.56229365  0.57380302  0.66655587  1
  H  H722  1  0.51054872  0.53830940  0.56430331  1
  C  C723  1  0.53695335  0.96875204  0.61924310  1
  H  H724  1  0.89381556  0.84992571  0.73529672  1
  C  C725  1  0.58373079  0.98808945  0.58190423  1
  O  O726  1  0.73696901  0.97851402  0.54859785  1
  H  H727  1  0.99979393  0.64441379  0.53640507  1
  C  C728  1  0.99965074  0.98981972  0.64641369  1
  C  C729  1  0.94787232  0.99668401  0.61016577  1
  O  O730  1  0.92940619  0.51621204  0.74431918  1
  C  C731  1  0.75542182  0.69301122  0.50056293  1
  C  C732  1  0.78115238  0.62891180  0.50231608  1
  H  H733  1  0.57375192  0.81349574  0.90508707  1
  H  H734  1  0.80516429  0.86632685  0.85115810  1
  C  C735  1  0.57721229  0.58923325  0.96193915  1
  O  O736  1  0.79053455  0.67021167  0.76075751  1
  Cu  Cu737  1  0.50650850  0.62670027  0.79491497  1
  O  O738  1  0.72077557  0.63987390  0.82595237  1
  C  C739  1  0.84362236  0.94222115  0.90810854  1
  C  C740  1  0.66716534  0.79395306  0.90173891  1
  C  C741  1  0.94062403  0.89009686  0.82045499  1
  O  O742  1  0.57530117  0.51554398  0.87292319  1
  H  H743  1  0.81210771  0.55219452  0.86008283  1
  C  C744  1  0.80997829  0.68452168  0.86887857  1
  C  C745  1  0.90336137  0.72974420  0.90035898  1
  C  C746  1  0.66364305  0.96780082  0.97842337  1
  C  C747  1  0.71316061  0.80507797  0.94477811  1
  H  H748  1  0.87801032  0.71964118  0.80344562  1
  H  H749  1  0.74541802  0.66605939  0.94547313  1
  C  C750  1  0.71823787  0.99876730  0.95284864  1
  C  C751  1  0.96290557  0.78524759  0.76661319  1
  H  H752  1  0.94742507  0.74961331  0.88932283  1
  H  H753  1  0.89743431  0.56100442  0.94692110  1
  H  H754  1  0.63819653  0.99579936  0.87734374  1
  C  C755  1  0.61366656  0.81226028  0.93325543  1
  C  C756  1  0.79217407  0.68087900  0.93477867  1
  H  H757  1  0.67675483  0.94861535  0.81601009  1
  C  C758  1  0.76999572  0.66887687  0.81666444  1
  C  C759  1  0.86541477  0.71180790  0.85375519  1
  C  C760  1  0.86010854  0.52622871  0.95180372  1
  C  C761  1  0.57339435  0.57321996  0.89350951  1
  H  H762  1  0.90879782  0.93015599  0.82951091  1
  H  H763  1  0.67341370  0.77194102  0.85395864  1
  O  O764  1  0.56113664  0.62396350  0.85676716  1
  C  C765  1  0.81697281  0.91933005  0.85305249  1
  H  H766  1  0.58313254  0.69575707  0.94241707  1
  Cu  Cu767  1  0.68704126  0.57146376  0.77421568  1
  C  C768  1  0.93078424  0.84659971  0.76884439  1
  O  O769  1  0.73600537  0.50662341  0.81393987  1
  H  H770  1  0.75124205  0.97047627  0.92528777  1
  H  H771  1  0.85129303  0.91160842  0.94940221  1
  C  C772  1  0.80614092  0.96205436  0.80083632  1
  C  C773  1  0.81487822  0.52245780  0.90523637  1
  C  C774  1  0.88918736  0.71939986  0.96564457  1
  H  H775  1  0.50506018  0.72718574  0.97750366  1
  C  C776  1  0.57807199  0.65706195  0.98102224  1
  C  C777  1  0.83234631  0.69640812  0.98301833  1
  C  C778  1  0.61727981  0.83232887  0.99778353  1
  H  H779  1  0.97064080  0.81955755  0.96781889  1
  H  H780  1  0.98420658  0.53146991  0.92396235  1
  C  C781  1  0.98491281  0.86521152  0.86556786  1
  H  H782  1  0.58953198  0.99082046  0.77141105  1
  H  H783  1  0.99971155  0.92470187  0.99218980  1
