# generated using pymatgen
data_ZnH7C11N2O3
_symmetry_space_group_name_H-M   'P 1'
_cell_length_a   26.15923888
_cell_length_b   27.93352651
_cell_length_c   12.15957459
_cell_angle_alpha   90.00000000
_cell_angle_beta   90.00000000
_cell_angle_gamma   90.00000000
_symmetry_Int_Tables_number   1
_chemical_formula_structural   ZnH7C11N2O3
_chemical_formula_sum   'Zn32 H224 C352 N64 O96'
_cell_volume   8885.24182615
_cell_formula_units_Z   32
loop_
 _symmetry_equiv_pos_site_id
 _symmetry_equiv_pos_as_xyz
  1  'x, y, z'
loop_
 _atom_site_type_symbol
 _atom_site_label
 _atom_site_symmetry_multiplicity
 _atom_site_fract_x
 _atom_site_fract_y
 _atom_site_fract_z
 _atom_site_occupancy
  O  O0  1  0.09159036  0.09974776  0.40516081  1
  Zn  Zn1  1  0.09712812  0.13013383  0.22430787  1
  H  H2  1  0.18220643  0.07352611  0.48317026  1
  C  C3  1  0.10577950  0.06045333  0.43969412  1
  C  C4  1  0.09757292  0.08205614  0.76930059  1
  C  C5  1  0.01424535  0.23450812  0.66396672  1
  C  C6  1  0.02749449  0.10020963  0.88738332  1
  C  C7  1  0.04131047  0.15246688  0.71391313  1
  C  C8  1  0.22935052  0.01149911  0.69824969  1
  C  C9  1  0.03073992  0.18243045  0.52839712  1
  N  N10  1  0.08572017  0.03545652  0.93235299  1
  C  C11  1  0.07801804  0.24410023  0.26087215  1
  O  O12  1  0.09886476  0.18102929  0.08001153  1
  O  O13  1  0.06757528  0.20365524  0.28961507  1
  C  C14  1  0.17689980  0.15459478  0.49523383  1
  C  C15  1  0.11270572  0.04648198  0.84655488  1
  N  N16  1  0.11339124  0.04850748  0.54587474  1
  C  C17  1  0.02553055  0.19903108  0.74000364  1
  C  C18  1  0.12156166  0.22155321  0.08001599  1
  O  O19  1  0.10976434  0.05609741  0.17847620  1
  H  H20  1  0.15097035  0.22839836  0.35096519  1
  H  H21  1  0.13669906  0.15777221  0.46932458  1
  H  H22  1  0.14879835  0.02235299  0.83625135  1
  O  O23  1  0.15301211  0.23178533  0.00292762  1
  O  O24  1  0.20676847  0.13694333  0.07191607  1
  C  C25  1  0.21295706  0.14897900  0.17239923  1
  N  N26  1  0.01633256  0.22595859  0.55440366  1
  O  O27  1  0.17965351  0.13562615  0.24193085  1
  C  C28  1  0.20012405  0.10904559  0.50518974  1
  C  C29  1  0.05410223  0.11100634  0.78955711  1
  C  C30  1  0.04218040  0.06104512  0.95291305  1
  H  H31  1  0.12295176  0.09280735  0.70241730  1
  C  C32  1  0.20618825  0.19495905  0.53010186  1
  H  H33  1  0.04997090  0.10598953  0.56320948  1
  O  O34  1  0.01613460  0.10683279  0.22291444  1
  C  C35  1  0.04082889  0.14274119  0.59670989  1
  H  H36  1  0.03244523  0.08192048  0.26395458  1
  H  H37  1  0.02915715  0.18232366  0.43979618  1
  Zn  Zn38  1  0.20911976  0.18690119  0.93811728  1
  H  H39  1  0.23139190  0.16013803  0.38005328  1
  C  C40  1  0.11368390  0.01938702  0.36420749  1
  N  N41  1  0.24160700  0.04634008  0.87933368  1
  H  H42  1  0.02169025  0.05287582  0.02568635  1
  C  C43  1  0.11269970  0.01993632  0.24099872  1
  O  O44  1  0.23004170  0.24265371  0.80749933  1
  C  C45  1  0.24013086  0.04940784  0.76931481  1
  N  N46  1  0.24771984  0.10291209  0.53782592  1
  H  H47  1  0.24269093  0.08887038  0.75021599  1
  H  H48  1  0.00132849  0.03950713  0.74194124  1
  H  H49  1  0.22079358  0.01911298  0.60826041  1
  H  H50  1  0.02292684  0.20689559  0.83105857  1
  C  C51  1  0.18929711  0.24605924  0.51003843  1
  H  H52  1  0.12468756  0.00680063  0.67092765  1
  H  H53  1  0.24554638  0.00906487  0.00819614  1
  C  C54  1  0.12362128  0.00570653  0.58266855  1
  C  C55  1  0.23920931  0.00330335  0.91764286  1
  C  C56  1  0.06153052  0.40538187  0.16706134  1
  O  O57  1  0.08866582  0.42680016  0.23507385  1
  H  H58  1  0.15320305  0.36086472  0.25097144  1
  C  C59  1  0.13586417  0.32448685  0.26976134  1
  O  O60  1  0.05169814  0.35908933  0.17680098  1
  C  C61  1  0.07845429  0.32939363  0.27998222  1
  H  H62  1  0.06224182  0.35702398  0.33958000  1
  C  C63  1  0.06707143  0.34407731  0.57323131  1
  C  C64  1  0.19949932  0.28337580  0.58416217  1
  H  H65  1  0.00640674  0.38875458  0.69263077  1
  H  H66  1  0.15593582  0.47340108  0.54676224  1
  C  C67  1  0.14516823  0.29528563  0.17209590  1
  H  H68  1  0.21900234  0.27499696  0.66429069  1
  Zn  Zn69  1  0.12671740  0.49478057  0.23919403  1
  N  N70  1  0.16697353  0.34115718  0.45052763  1
  H  H71  1  0.05942226  0.41883405  0.88390503  1
  H  H72  1  0.17074429  0.30340308  0.10570229  1
  H  H73  1  0.19447856  0.36426287  0.59007746  1
  C  C74  1  0.06206110  0.42974973  0.59483368  1
  H  H75  1  0.16182511  0.42243597  0.90414540  1
  C  C76  1  0.09275519  0.30202472  0.83568640  1
  C  C77  1  0.15535481  0.30600124  0.37875345  1
  C  C78  1  0.03422500  0.42954011  0.08024931  1
  C  C79  1  0.14606333  0.30993996  0.84465273  1
  N  N80  1  0.05673803  0.28428119  0.30737752  1
  H  H81  1  0.17471000  0.28114332  0.82604361  1
  C  C82  1  0.04207526  0.47885076  0.05145797  1
  O  O83  1  0.22673609  0.46943793  0.79741283  1
  N  N84  1  0.02747039  0.34213476  0.50131072  1
  N  N85  1  0.01152754  0.49813352  0.96669340  1
  H  H86  1  0.21460509  0.47034884  0.11394545  1
  N  N87  1  0.16688959  0.35276061  0.86298680  1
  O  O88  1  0.21755950  0.43546608  0.01970021  1
  C  C89  1  0.08575039  0.38633836  0.61861686  1
  H  H90  1  0.11674576  0.38531226  0.67639924  1
  C  C91  1  0.18721980  0.33022086  0.54692718  1
  H  H92  1  0.08322632  0.30834563  0.58720174  1
  C  C93  1  0.08246923  0.38644505  0.86986778  1
  C  C94  1  0.13641839  0.39017038  0.88118098  1
  C  C95  1  0.16366018  0.25773636  0.40999232  1
  C  C96  1  0.05865968  0.34200683  0.85021193  1
  C  C97  1  0.22710444  0.39627785  0.07295060  1
  C  C98  1  0.08731316  0.47420189  0.64716067  1
  C  C99  1  0.22466207  0.44002582  0.25648796  1
  C  C100  1  0.11641082  0.25530988  0.17215792  1
  O  O101  1  0.22365611  0.44202033  0.35370578  1
  C  C102  1  0.23453364  0.39798468  0.19443247  1
  O  O103  1  0.20837346  0.48643408  0.19028987  1
  C  C104  1  0.00535972  0.38449265  0.48086355  1
  C  C105  1  0.00257749  0.33504742  0.81958068  1
  H  H106  1  0.07738025  0.26850975  0.80732773  1
  C  C107  1  0.13517502  0.49096919  0.61446698  1
  H  H108  1  0.02300051  0.48883609  0.76980685  1
  C  C109  1  0.01786952  0.42889778  0.52633820  1
  Zn  Zn110  1  0.00431557  0.28056588  0.43979006  1
  H  H111  1  0.00505215  0.27169282  0.67850970  1
  N  N112  1  0.24021341  0.35401881  0.02835988  1
  Zn  Zn113  1  0.24179072  0.35377959  0.85668642  1
  H  H114  1  0.24540077  0.35511217  0.34915436  1
  C  C115  1  0.24702456  0.35753308  0.25873014  1
  C  C116  1  0.15366135  0.53405479  0.66060778  1
  H  H117  1  0.22552087  0.67943932  0.53496831  1
  N  N118  1  0.02101761  0.63721278  0.94238232  1
  C  C119  1  0.10794744  0.60622221  0.25322141  1
  C  C120  1  0.04253182  0.67222584  0.88663236  1
  N  N121  1  0.11503264  0.65359305  0.21933894  1
  O  O122  1  0.13995182  0.57416530  0.24290244  1
  H  H123  1  0.07027682  0.74637118  0.87925577  1
  C  C124  1  0.23872830  0.69856665  0.04907507  1
  H  H125  1  0.06620287  0.65272448  0.82157143  1
  C  C126  1  0.05734431  0.55067406  0.38478734  1
  C  C127  1  0.06394410  0.59832756  0.32702700  1
  Zn  Zn128  1  0.03653288  0.56600152  0.89379422  1
  C  C129  1  0.00523632  0.73526228  0.99468656  1
  Zn  Zn130  1  0.17828268  0.67308178  0.12486634  1
  H  H131  1  0.09173639  0.72208433  0.19189530  1
  H  H132  1  0.19100429  0.54985981  0.64233041  1
  C  C133  1  0.08244044  0.68834169  0.23731684  1
  O  O134  1  0.09388979  0.51903595  0.38485252  1
  C  C135  1  0.03761704  0.67990873  0.29933693  1
  C  C136  1  0.08559804  0.54170113  0.77768449  1
  O  O137  1  0.22300634  0.68467190  0.33948280  1
  N  N138  1  0.12924730  0.55924905  0.74170379  1
  C  C139  1  0.04128068  0.72162800  0.91045820  1
  C  C140  1  0.02976991  0.63508946  0.34552769  1
  H  H141  1  0.13223683  0.74766189  0.47469273  1
  C  C142  1  0.06060694  0.50037579  0.73136169  1
  H  H143  1  0.00966815  0.71088422  0.31663940  1
  O  O144  1  0.02137486  0.54571432  0.44224193  1
  N  N145  1  0.24748865  0.74219868  0.03615516  1
  O  O146  1  0.07508742  0.50419862  0.09762553  1
  C  C147  1  0.13198996  0.96438462  0.51808778  1
  H  H148  1  0.19137028  0.80015368  0.65302176  1
  C  C149  1  0.11711393  0.84468668  0.85838856  1
  C  C150  1  0.11853699  0.88129597  0.94351704  1
  C  C151  1  0.15451397  0.77302404  0.32203965  1
  H  H152  1  0.12489461  0.94356855  0.34901932  1
  H  H153  1  0.04554072  0.81740730  0.90363899  1
  C  C154  1  0.22587807  0.87988710  0.48864805  1
  H  H155  1  0.08650512  0.81315810  0.12550749  1
  O  O156  1  0.13141965  0.86978357  0.03623076  1
  N  N157  1  0.14324588  0.79077434  0.22200168  1
  H  H158  1  0.18826377  0.87042995  0.78782189  1
  C  C159  1  0.01923278  0.82447427  0.97171289  1
  C  C160  1  0.01086647  0.87179419  0.00423237  1
  H  H161  1  0.08160111  0.97541143  0.78301270  1
  H  H162  1  0.22740335  0.92785618  0.90388395  1
  N  N163  1  0.21365274  0.83769700  0.53068333  1
  N  N164  1  0.10360011  0.92811771  0.90947986  1
  C  C165  1  0.03741697  0.76639345  0.59401655  1
  H  H166  1  0.10276119  0.82611168  0.67828622  1
  C  C167  1  0.22974182  0.96072486  0.85772433  1
  O  O168  1  0.14017006  0.77104745  0.78810503  1
  C  C169  1  0.09307536  0.79827566  0.20923748  1
  Zn  Zn170  1  0.10219120  0.98220699  0.02692242  1
  C  C171  1  0.08632836  0.90116705  0.72423554  1
  C  C172  1  0.22355576  0.92160864  0.66754475  1
  C  C173  1  0.12421928  0.97481344  0.40589644  1
  C  C174  1  0.05393809  0.79591063  0.28700533  1
  C  C175  1  0.09093398  0.93724039  0.80637901  1
  C  C176  1  0.20466670  0.87674680  0.70400968  1
  C  C177  1  0.22991435  0.96409919  0.74315160  1
  C  C178  1  0.00218347  0.98519815  0.61078743  1
  C  C179  1  0.06630891  0.78170921  0.39646213  1
  H  H180  1  0.02974299  0.90543706  0.97406653  1
  O  O181  1  0.15657896  0.77970577  0.96353729  1
  O  O182  1  0.10893777  0.97943911  0.19342026  1
  C  C183  1  0.13915968  0.79543677  0.87201521  1
  H  H184  1  0.13998473  0.92937281  0.55932812  1
  C  C185  1  0.10218347  0.85396291  0.75161349  1
  C  C186  1  0.11792251  0.76683279  0.40403701  1
  C  C187  1  0.02458682  0.77031613  0.47853123  1
  H  H188  1  0.15992340  0.89377097  0.17814714  1
  C  C189  1  0.20215848  0.83682614  0.63783644  1
  Zn  Zn190  1  0.19472461  0.80512034  0.10108788  1
  C  C191  1  0.20130638  0.90282941  0.19255203  1
  H  H192  1  0.07403431  0.90887155  0.63974629  1
  H  H193  1  0.19091001  0.97177876  0.27036021  1
  C  C194  1  0.21860832  0.94482051  0.24025737  1
  C  C195  1  0.23657101  0.92002593  0.55645009  1
  N  N196  1  0.23197279  0.86599736  0.16384084  1
  H  H197  1  0.19648835  0.76907218  0.32515064  1
  H  H198  1  0.01817565  0.95716101  0.65975899  1
  H  H199  1  0.01568475  0.81122476  0.26378112  1
  H  H200  1  0.23753834  0.87809222  0.40248793  1
  H  H201  1  0.07720266  0.76652567  0.61574891  1
  C  C202  1  0.00113197  0.76265081  0.67631241  1
  H  H203  1  0.01073949  0.75702236  0.76567268  1
  C  C204  1  0.29158897  0.20245527  0.13800201  1
  O  O205  1  0.33286861  0.13503103  0.79628066  1
  C  C206  1  0.33680142  0.22510130  0.30006064  1
  C  C207  1  0.36165053  0.08976609  0.38459357  1
  C  C208  1  0.44308547  0.18842790  0.94752722  1
  C  C209  1  0.25623669  0.17724730  0.21197927  1
  H  H210  1  0.34935184  0.12640006  0.23290620  1
  O  O211  1  0.43441759  0.01231904  0.08478131  1
  C  C212  1  0.29785919  0.16751311  0.80104024  1
  O  O213  1  0.28499331  0.20189450  0.03869411  1
  C  C214  1  0.37869563  0.11350337  0.28839573  1
  Zn  Zn215  1  0.49144805  0.04221676  0.66768305  1
  N  N216  1  0.44361030  0.23597568  0.98591987  1
  H  H217  1  0.32095788  0.08802191  0.41391979  1
  Zn  Zn218  1  0.37460940  0.10429457  0.91365669  1
  H  H219  1  0.39508260  0.19652738  0.77293090  1
  C  C220  1  0.31478452  0.21783167  0.79773582  1
  C  C221  1  0.47290347  0.12970159  0.79028916  1
  O  O222  1  0.36696799  0.04839221  0.01995933  1
  C  C223  1  0.39733187  0.01216235  0.01615684  1
  C  C224  1  0.38810899  0.04371429  0.54876104  1
  C  C225  1  0.30078717  0.20342280  0.36895672  1
  C  C226  1  0.45590502  0.07646405  0.42220608  1
  C  C227  1  0.40083181  0.07058810  0.44903316  1
  H  H228  1  0.27946673  0.21911221  0.60746789  1
  O  O229  1  0.41894136  0.01921294  0.61052138  1
  C  C230  1  0.43036693  0.11707885  0.26271498  1
  O  O231  1  0.25140245  0.15603250  0.80915739  1
  H  H232  1  0.31308699  0.12540487  0.59179291  1
  N  N233  1  0.46589200  0.10251541  0.33003774  1
  O  O234  1  0.44951623  0.09364482  0.83444201  1
  H  H235  1  0.44291970  0.13328213  0.18304275  1
  O  O236  1  0.42247892  0.15656077  0.00170669  1
  C  C237  1  0.27541155  0.14106730  0.56686955  1
  C  C238  1  0.46889725  0.17775243  0.84245257  1
  O  O239  1  0.34186240  0.04066656  0.56285254  1
  N  N240  1  0.33288926  0.22420054  0.18854617  1
  C  C241  1  0.36681569  0.22642479  0.78322260  1
  C  C242  1  0.25557539  0.18816685  0.57567258  1
  C  C243  1  0.26005174  0.17682780  0.32463490  1
  C  C244  1  0.49410863  0.21383035  0.78807219  1
  H  H245  1  0.36984899  0.24700854  0.32721658  1
  H  H246  1  0.31258530  0.19929044  0.46037104  1
  O  O247  1  0.48963874  0.06606412  0.49242093  1
  N  N248  1  0.44567542  0.24922718  0.51089932  1
  H  H249  1  0.32395535  0.01271360  0.85761429  1
  C  C250  1  0.40525472  0.32158716  0.57763686  1
  C  C251  1  0.44350258  0.32392430  0.27138217  1
  C  C252  1  0.47731738  0.26535649  0.93859675  1
  H  H253  1  0.49707682  0.43438362  0.47832576  1
  C  C254  1  0.25770666  0.31656752  0.20246161  1
  C  C255  1  0.37370863  0.35755076  0.18899555  1
  N  N256  1  0.40578029  0.31994123  0.19827104  1
  N  N257  1  0.29350437  0.30272152  0.81097079  1
  C  C258  1  0.38389094  0.39973723  0.24653424  1
  C  C259  1  0.40078809  0.49538248  0.34357627  1
  H  H260  1  0.35685373  0.42862516  0.23436014  1
  H  H261  1  0.35067913  0.35147036  0.80056099  1
  H  H262  1  0.27094533  0.28288665  0.24975820  1
  C  C263  1  0.30472106  0.40282483  0.55623293  1
  C  C264  1  0.42626868  0.45719137  0.01944876  1
  O  O265  1  0.36422519  0.41011846  0.95410495  1
  C  C266  1  0.37840275  0.45159541  0.96153831  1
  H  H267  1  0.28405114  0.33876587  0.64937275  1
  H  H268  1  0.42704008  0.37792523  0.04504822  1
  N  N269  1  0.46982994  0.48418763  0.76255887  1
  H  H270  1  0.37204363  0.34619186  0.57726230  1
  C  C271  1  0.49135869  0.42026570  0.11105424  1
  C  C272  1  0.37850164  0.27480843  0.78427433  1
  C  C273  1  0.42603019  0.40727339  0.31897852  1
  H  H274  1  0.47496336  0.30096599  0.97383610  1
  H  H275  1  0.34332165  0.34991740  0.12761275  1
  C  C276  1  0.31015780  0.45277489  0.56135781  1
  H  H277  1  0.48053132  0.36014617  0.40501838  1
  C  C278  1  0.45429244  0.36331587  0.33898724  1
  Zn  Zn279  1  0.39538059  0.26216096  0.11232068  1
  C  C280  1  0.49459165  0.31000255  0.59907207  1
  C  C281  1  0.28258318  0.37700305  0.64416519  1
  C  C282  1  0.46846736  0.46335212  0.45895361  1
  C  C283  1  0.44625259  0.41205967  0.05275189  1
  H  H284  1  0.31917602  0.37968907  0.48595361  1
  C  C285  1  0.43448182  0.45472771  0.36773657  1
  H  H286  1  0.46429636  0.29061216  0.27956488  1
  H  H287  1  0.38050593  0.41058206  0.65203939  1
  H  H288  1  0.41968847  0.28144639  0.77951779  1
  C  C289  1  0.49840660  0.25953051  0.83618526  1
  C  C290  1  0.25521749  0.31628495  0.08453321  1
  H  H291  1  0.33666400  0.47220350  0.50334020  1
  C  C292  1  0.34281000  0.31255547  0.79455981  1
  C  C293  1  0.45841289  0.38683281  0.67510706  1
  C  C294  1  0.41957290  0.42264751  0.67073491  1
  C  C295  1  0.28321522  0.47372921  0.64895432  1
  N  N296  1  0.25905112  0.39823724  0.72989310  1
  H  H297  1  0.26709272  0.28591621  0.02829475  1
  C  C298  1  0.45177296  0.33812582  0.62273321  1
  C  C299  1  0.42603796  0.46877370  0.71480505  1
  H  H300  1  0.39855552  0.49886218  0.71810537  1
  C  C301  1  0.27694337  0.25622647  0.80109165  1
  H  H302  1  0.37171928  0.26292799  0.46887676  1
  C  C303  1  0.40329803  0.27866474  0.51989328  1
  C  C304  1  0.49043323  0.26575215  0.54325349  1
  C  C305  1  0.25105591  0.44801291  0.73041412  1
  O  O306  1  0.34939918  0.48791067  0.92120625  1
  H  H307  1  0.37315005  0.49426202  0.27041437  1
  Zn  Zn308  1  0.36445195  0.68915885  0.21984168  1
  O  O309  1  0.31918686  0.54573860  0.55294062  1
  O  O310  1  0.43118978  0.68660418  0.11824442  1
  C  C311  1  0.43143075  0.72620943  0.07276068  1
  C  C312  1  0.37144465  0.53899734  0.92188643  1
  O  O313  1  0.36658640  0.63517487  0.35148146  1
  O  O314  1  0.42449030  0.54126234  0.99643474  1
  C  C315  1  0.26575500  0.66809773  0.33671669  1
  O  O316  1  0.28659578  0.65791615  0.24249728  1
  C  C317  1  0.31522313  0.66601022  0.96291004  1
  C  C318  1  0.35142370  0.62795882  0.93377566  1
  C  C319  1  0.32637606  0.71462474  0.94195455  1
  C  C320  1  0.33615734  0.57917616  0.94012652  1
  Zn  Zn321  1  0.44627942  0.60423835  0.56508813  1
  H  H322  1  0.27509073  0.67783253  0.71401121  1
  H  H323  1  0.32504925  0.74651095  0.73383479  1
  H  H324  1  0.38470683  0.57188033  0.39457248  1
  O  O325  1  0.48650551  0.71327217  0.59155348  1
  C  C326  1  0.34092774  0.64630208  0.63855627  1
  O  O327  1  0.27353890  0.55198740  0.71031316  1
  C  C328  1  0.47898563  0.65989706  0.32838066  1
  H  H329  1  0.44270330  0.65396152  0.38025693  1
  C  C330  1  0.40398044  0.64480890  0.90729227  1
  N  N331  1  0.45475685  0.60112809  0.75268794  1
  C  C332  1  0.29501819  0.66065378  0.44229332  1
  C  C333  1  0.42741777  0.62163567  0.82592994  1
  N  N334  1  0.36753391  0.63545779  0.54830550  1
  H  H335  1  0.31540498  0.57876336  0.56829807  1
  C  C336  1  0.34749723  0.64546056  0.44502569  1
  C  C337  1  0.29180988  0.66366950  0.63589703  1
  C  C338  1  0.40682997  0.53700670  0.40294361  1
  H  H339  1  0.42065484  0.67820817  0.94283873  1
  H  H340  1  0.29569976  0.56914132  0.94746947  1
  H  H341  1  0.36210327  0.63687152  0.71234824  1
  H  H342  1  0.40094036  0.54020488  0.85180983  1
  H  H343  1  0.32788683  0.73026274  0.53863201  1
  H  H344  1  0.36150754  0.72682814  0.89714662  1
  N  N345  1  0.44015716  0.54387872  0.48655393  1
  H  H346  1  0.49553261  0.60761837  0.75737935  1
  C  C347  1  0.46838979  0.73775404  0.98925011  1
  H  H348  1  0.46784970  0.73601543  0.32089774  1
  C  C349  1  0.29239672  0.52487928  0.64428820  1
  H  H350  1  0.49340487  0.58476834  0.28811038  1
  C  C351  1  0.26793674  0.65693301  0.01864747  1
  C  C352  1  0.26723674  0.66936873  0.53661106  1
  N  N353  1  0.49585390  0.51023829  0.08553922  1
  H  H354  1  0.25640273  0.61918767  0.03733522  1
  C  C355  1  0.49260773  0.70641392  0.30180177  1
  C  C356  1  0.44933266  0.50455923  0.03775004  1
  O  O357  1  0.35868358  0.74908161  0.34150115  1
  C  C358  1  0.29329118  0.74869921  0.98290268  1
  H  H359  1  0.49642270  0.51359250  0.58386886  1
  C  C360  1  0.47055384  0.50794080  0.51309822  1
  C  C361  1  0.35844391  0.92485098  0.22877439  1
  C  C362  1  0.30347271  0.91676604  0.21671895  1
  H  H363  1  0.39684821  0.89588202  0.67690572  1
  O  O364  1  0.39484048  0.89609782  0.19191673  1
  C  C365  1  0.35316676  0.95489264  0.75536570  1
  H  H366  1  0.28929974  0.98780051  0.28591971  1
  C  C367  1  0.35379666  0.75814699  0.57260107  1
  C  C368  1  0.28394538  0.87278027  0.16398229  1
  O  O369  1  0.31262619  0.84103259  0.12559086  1
  Zn  Zn370  1  0.39042117  0.82106295  0.16431257  1
  O  O371  1  0.37307466  0.96229165  0.27288667  1
  O  O372  1  0.43919798  0.81945340  0.00085034  1
  H  H373  1  0.40695014  0.79072060  0.82328771  1
  Zn  Zn374  1  0.48210641  0.85588402  0.76969578  1
  C  C375  1  0.46837092  0.78911271  0.95838233  1
  Zn  Zn376  1  0.46191426  0.95309019  0.17029955  1
  C  C377  1  0.39376723  0.97967869  0.92159363  1
  O  O378  1  0.44523729  0.84601267  0.49916536  1
  O  O379  1  0.41944142  0.80383498  0.33140406  1
  H  H380  1  0.32470069  0.95801876  0.68494256  1
  C  C381  1  0.39616772  0.79187045  0.73340219  1
  C  C382  1  0.38611360  0.78513416  0.50620523  1
  C  C383  1  0.27143383  0.95252849  0.25919485  1
  O  O384  1  0.46613111  0.93812199  0.98609400  1
  C  C385  1  0.38807282  0.77780083  0.38748458  1
  C  C386  1  0.42022600  0.82011664  0.56129084  1
  N  N387  1  0.42848565  0.81862273  0.67446501  1
  C  C388  1  0.35437670  0.76652210  0.68744362  1
  H  H389  1  0.29791666  0.78942482  0.98092420  1
  C  C390  1  0.43308891  0.94165788  0.91567872  1
  N  N391  1  0.42951493  0.91554452  0.81973147  1
  C  C392  1  0.39167634  0.92011454  0.74588302  1
  H  H393  1  0.25846309  0.95034474  0.51575073  1
  C  C394  1  0.35455914  0.98687097  0.84448123  1
  O  O395  1  0.49907779  0.91370616  0.30054424  1
  N  N396  1  0.49781098  0.79759983  0.86580990  1
  O  O397  1  0.39433564  0.75451104  0.10108229  1
  N  N398  1  0.55292572  0.11423673  0.10313197  1
  H  H399  1  0.55132942  0.04272216  0.88121038  1
  Zn  Zn400  1  0.54202128  0.10910129  0.28077546  1
  C  C401  1  0.57055938  0.15625279  0.05986802  1
  N  N402  1  0.57162794  0.15835758  0.38804811  1
  O  O403  1  0.57664606  0.19367453  0.11244194  1
  H  H404  1  0.67097776  0.06382871  0.84362534  1
  C  C405  1  0.59910714  0.19541757  0.35312515  1
  H  H406  1  0.59473474  0.19408661  0.26132224  1
  O  O407  1  0.57693531  0.05090023  0.67764285  1
  C  C408  1  0.60433826  0.23088842  0.53736210  1
  H  H409  1  0.51946671  0.04723936  0.07574171  1
  Zn  Zn410  1  0.71922055  0.14047837  0.75297968  1
  C  C411  1  0.56628637  0.15494220  0.49555934  1
  C  C412  1  0.54046767  0.07710815  0.03575618  1
  C  C413  1  0.68788979  0.07933226  0.91829969  1
  O  O414  1  0.65191775  0.03337922  0.62721675  1
  H  H415  1  0.64969308  0.07760371  0.36461129  1
  N  N416  1  0.58415349  0.04618340  0.31707343  1
  H  H417  1  0.54804936  0.11879818  0.51535386  1
  C  C418  1  0.61063938  0.01883553  0.65661093  1
  C  C419  1  0.59361402  0.15450240  0.94834307  1
  C  C420  1  0.55741274  0.07600607  0.92981608  1
  O  O421  1  0.63195110  0.23324064  0.94003587  1
  C  C422  1  0.71892603  0.12035063  0.92463939  1
  C  C423  1  0.63078131  0.04331919  0.35659623  1
  H  H424  1  0.58276599  0.24128292  0.76291953  1
  C  C425  1  0.58707360  0.11393522  0.88583257  1
  H  H426  1  0.60231632  0.10811883  0.80131632  1
  C  C427  1  0.61019620  0.23588794  0.42059532  1
  O  O428  1  0.64452650  0.18031544  0.80455741  1
  C  C429  1  0.62508055  0.19195916  0.89545835  1
  C  C430  1  0.67872972  0.05169234  0.01616707  1
  H  H431  1  0.58634692  0.17677587  0.66306959  1
  C  C432  1  0.65212858  0.00019320  0.39183412  1
  C  C433  1  0.58332282  0.18705259  0.57820732  1
  H  H434  1  0.61802768  0.00051117  0.85661811  1
  C  C435  1  0.55703720  0.00727950  0.28459643  1
  C  C436  1  0.70594288  0.07283897  0.10699979  1
  O  O437  1  0.51484431  0.01114181  0.23423688  1
  H  H438  1  0.70029630  0.05622333  0.19135172  1
  H  H439  1  0.51297865  0.20740004  0.70612882  1
  H  H440  1  0.69040573  0.00001700  0.42989982  1
  C  C441  1  0.73700621  0.11314439  0.10261756  1
  N  N442  1  0.74427950  0.13834322  0.00642137  1
  O  O443  1  0.50254994  0.12199184  0.71041697  1
  H  H444  1  0.52013165  0.23705109  0.51819055  1
  C  C445  1  0.64750268  0.00710691  0.02166672  1
  C  C446  1  0.60258261  0.38105917  0.17938202  1
  C  C447  1  0.58781503  0.34055435  0.25271559  1
  C  C448  1  0.62750228  0.41718096  0.23193128  1
  O  O449  1  0.57022062  0.29804945  0.22032270  1
  H  H450  1  0.63204058  0.41690575  0.32152750  1
  C  C451  1  0.65091435  0.45274981  0.16648189  1
  H  H452  1  0.69548698  0.40751003  0.82866460  1
  H  H453  1  0.53727882  0.37820776  0.74828247  1
  H  H454  1  0.58561895  0.31575556  0.88117014  1
  H  H455  1  0.53404936  0.32214510  0.61907916  1
  Zn  Zn456  1  0.60728766  0.26759095  0.08195662  1
  C  C457  1  0.50616620  0.44973442  0.76878712  1
  C  C458  1  0.63700410  0.35369859  0.64768044  1
  H  H459  1  0.54179852  0.46878848  0.80873068  1
  H  H460  1  0.51812438  0.28754246  0.79185405  1
  N  N461  1  0.61623264  0.35434528  0.74792439  1
  O  O462  1  0.59332161  0.34536947  0.35114751  1
  H  H463  1  0.64853151  0.39178913  0.62781300  1
  H  H464  1  0.62012711  0.27111852  0.38250453  1
  Zn  Zn465  1  0.60983232  0.41716741  0.83333718  1
  C  C466  1  0.60140696  0.31350349  0.79321376  1
  O  O467  1  0.68921832  0.29128435  0.12224808  1
  C  C468  1  0.71116085  0.35022332  0.95729542  1
  C  C469  1  0.61212158  0.47169336  0.62378125  1
  C  C470  1  0.59681380  0.38022140  0.05715857  1
  O  O471  1  0.57823002  0.34249405  0.01636089  1
  C  C472  1  0.64319667  0.45028897  0.05212288  1
  C  C473  1  0.64211023  0.31420273  0.57602712  1
  H  H474  1  0.51069727  0.38831138  0.13908744  1
  H  H475  1  0.66519353  0.47334016  0.99206220  1
  H  H476  1  0.54980690  0.47659730  0.15295472  1
  N  N477  1  0.63538771  0.46416213  0.72058549  1
  C  C478  1  0.60118695  0.27234671  0.72580816  1
  N  N479  1  0.61665083  0.41827624  0.00034756  1
  H  H480  1  0.58288343  0.44513687  0.61203445  1
  C  C481  1  0.50337222  0.40197200  0.73473144  1
  H  H482  1  0.65699086  0.31879362  0.49175371  1
  H  H483  1  0.68146628  0.36029115  0.01647216  1
  C  C484  1  0.71878936  0.37494852  0.85990297  1
  C  C485  1  0.72731779  0.28313688  0.06401410  1
  C  C486  1  0.61586337  0.27149267  0.61374786  1
  C  C487  1  0.74264322  0.30862813  0.96446886  1
  H  H488  1  0.67945225  0.47679485  0.20244825  1
  C  C489  1  0.51067120  0.46827392  0.12046660  1
  C  C490  1  0.56556438  0.66476963  0.21535664  1
  C  C491  1  0.53661882  0.71047608  0.23503219  1
  H  H492  1  0.53957562  0.57539048  0.47728688  1
  C  C493  1  0.54779743  0.55843237  0.84705987  1
  H  H494  1  0.50719388  0.66698671  0.98959036  1
  Zn  Zn495  1  0.55023548  0.57090449  0.07733478  1
  C  C496  1  0.50708397  0.62155570  0.28521404  1
  H  H497  1  0.64418607  0.69912047  0.44705667  1
  C  C498  1  0.56890001  0.70657122  0.51580724  1
  Zn  Zn499  1  0.72831849  0.65327988  0.58889963  1
  C  C500  1  0.54189216  0.71976852  0.87690617  1
  Zn  Zn501  1  0.63754599  0.71027738  0.05500519  1
  O  O502  1  0.61178981  0.66704449  0.19404759  1
  H  H503  1  0.57327997  0.69737661  0.84308700  1
  C  C504  1  0.60827583  0.67940887  0.46915759  1
  H  H505  1  0.62523699  0.60918464  0.40322911  1
  C  C506  1  0.60904432  0.61200033  0.91632105  1
  H  H507  1  0.61488064  0.61640286  0.07584816  1
  C  C508  1  0.56413531  0.56434028  0.73539868  1
  C  C509  1  0.55231905  0.61237248  0.49119476  1
  N  N510  1  0.53674633  0.62239961  0.19359724  1
  C  C511  1  0.60086058  0.60006104  0.71624442  1
  N  N512  1  0.57047032  0.58265615  0.92937627  1
  O  O513  1  0.68494362  0.68074435  0.86069787  1
  H  H514  1  0.61482388  0.61142249  0.63306728  1
  O  O515  1  0.63931267  0.63308564  0.01743328  1
  C  C516  1  0.65973675  0.66454351  0.78464647  1
  O  O517  1  0.66571106  0.67793926  0.68718004  1
  C  C518  1  0.59991437  0.63064368  0.45792643  1
  C  C519  1  0.62242079  0.62233568  0.80784275  1
  H  H520  1  0.73725708  0.73726395  0.99012736  1
  C  C521  1  0.50545175  0.70335954  0.95495485  1
  C  C522  1  0.67334260  0.53068269  0.56253353  1
  H  H523  1  0.69438304  0.55004675  0.49927339  1
  C  C524  1  0.69383802  0.52849934  0.66667150  1
  H  H525  1  0.52115646  0.53069156  0.86988258  1
  N  N526  1  0.51380277  0.63788821  0.53525129  1
  O  O527  1  0.74473676  0.66636544  0.41962419  1
  C  C528  1  0.73752945  0.55863231  0.69476823  1
  H  H529  1  0.54963682  0.54064953  0.67201387  1
  C  C530  1  0.51888434  0.68722647  0.55351025  1
  C  C531  1  0.62919781  0.50219886  0.54074289  1
  H  H532  1  0.60942276  0.50385766  0.46047919  1
  C  C533  1  0.67028497  0.50004471  0.75670346  1
  O  O534  1  0.68088578  0.50604593  0.85276397  1
  H  H535  1  0.68365825  0.81710900  0.12435165  1
  C  C536  1  0.58732920  0.94526599  0.95586032  1
  C  C537  1  0.73732537  0.88413916  0.78763181  1
  C  C538  1  0.69293375  0.84413751  0.18444431  1
  C  C539  1  0.64306349  0.80598293  0.95132167  1
  C  C540  1  0.62294999  0.95741349  0.38016891  1
  C  C541  1  0.68437145  0.85322278  0.37056073  1
  H  H542  1  0.66316816  0.83897864  0.43629092  1
  N  N543  1  0.67523824  0.82884048  0.28251602  1
  C  C544  1  0.64528781  0.93831056  0.64888936  1
  C  C545  1  0.57461449  0.96050684  0.33651959  1
  Zn  Zn546  1  0.50101520  0.82638699  0.37169166  1
  H  H547  1  0.58629537  0.83168217  0.72195825  1
  H  H548  1  0.55834593  0.93057437  0.89686934  1
  C  C549  1  0.61881555  0.98490047  0.93540742  1
  C  C550  1  0.66105474  0.84808258  0.89943522  1
  O  O551  1  0.56280226  0.87967090  0.38218890  1
  C  C552  1  0.55404658  0.94817755  0.70534896  1
  H  H553  1  0.67547127  0.86511205  0.66728476  1
  N  N554  1  0.55140677  0.89749776  0.71378013  1
  C  C555  1  0.72186087  0.88516289  0.16724293  1
  C  C556  1  0.59294032  0.87000603  0.69867305  1
  C  C557  1  0.63942740  0.88876655  0.66538815  1
  C  C558  1  0.71547005  0.89528323  0.36447131  1
  C  C559  1  0.71398948  0.84902517  0.86907965  1
  C  C560  1  0.54330625  0.91701517  0.34056743  1
  H  H561  1  0.63894930  0.92234122  0.41028550  1
  C  C562  1  0.64913931  0.97741732  0.11844754  1
  C  C563  1  0.62189157  0.93351851  0.12317514  1
  H  H564  1  0.55266770  0.77330613  0.75381530  1
  C  C565  1  0.53176226  0.76523010  0.83213211  1
  N  N566  1  0.59142349  0.91841609  0.04442791  1
  H  H567  1  0.62113913  0.90852622  0.19467263  1
  H  H568  1  0.72022031  0.91670145  0.44167260  1
  N  N569  1  0.67249156  0.76913829  0.98197390  1
  H  H570  1  0.63633616  0.88016174  0.88859774  1
  O  O571  1  0.53494612  0.78852877  0.52534320  1
  H  H572  1  0.68250806  0.95872514  0.63205162  1
  O  O573  1  0.52534271  0.79527959  0.22251134  1
  C  C574  1  0.60391215  0.96592529  0.67375424  1
  H  H575  1  0.60472472  0.79589620  0.97774438  1
  H  H576  1  0.50613591  0.76253478  0.54579503  1
  C  C577  1  0.73320169  0.91304657  0.26348311  1
  C  C578  1  0.72187795  0.77169344  0.95805898  1
  H  H579  1  0.72168332  0.94873207  0.88326033  1
  C  C580  1  0.73627425  0.93510018  0.80604736  1
  H  H581  1  0.66789515  0.99261950  0.19587725  1
  O  O582  1  0.51777510  0.97451826  0.72171042  1
  O  O583  1  0.59354555  0.76289772  0.14729669  1
  C  C584  1  0.74495524  0.80959960  0.90373295  1
  C  C585  1  0.55204954  0.75755794  0.20121205  1
  O  O586  1  0.62269528  0.77448397  0.50419458  1
  H  H587  1  0.74245619  0.96827179  0.08107564  1
  H  H588  1  0.73855424  0.89364960  0.08921158  1
  C  C589  1  0.58097642  0.75690818  0.51706611  1
  H  H590  1  0.75806758  0.12818719  0.17143346  1
  O  O591  1  0.93482423  0.03847149  0.26489219  1
  O  O592  1  0.93083233  0.19172328  0.32796836  1
  C  C593  1  0.89856971  0.00617827  0.76858390  1
  N  N594  1  0.91027924  0.02327520  0.95947563  1
  C  C595  1  0.82466387  0.14920340  0.67911204  1
  C  C596  1  0.81112378  0.20236608  0.66795684  1
  C  C597  1  0.89386413  0.21595067  0.60881378  1
  O  O598  1  0.79093297  0.07056518  0.73791933  1
  O  O599  1  0.86857342  0.18539156  0.02398678  1
  N  N600  1  0.82342245  0.04087131  0.21605717  1
  C  C601  1  0.89336753  0.03486448  0.86101774  1
  H  H602  1  0.88029035  0.07145741  0.86461724  1
  O  O603  1  0.92859213  0.09072265  0.44437541  1
  C  C604  1  0.90282868  0.22943091  0.16704431  1
  O  O605  1  0.88236060  0.14439529  0.17638238  1
  C  C606  1  0.88539010  0.18277864  0.12119081  1
  H  H607  1  0.88818402  0.02014174  0.68872345  1
  N  N608  1  0.96979520  0.06876886  0.60654719  1
  H  H609  1  0.94732142  0.15596552  0.57756338  1
  C  C610  1  0.95540220  0.06274713  0.49652151  1
  H  H611  1  0.88731733  0.09412522  0.64997326  1
  C  C612  1  0.92607814  0.22878431  0.27592740  1
  C  C613  1  0.87442600  0.13145290  0.65113345  1
  Zn  Zn614  1  0.93812379  0.11403399  0.27155160  1
  C  C615  1  0.96992255  0.01709099  0.43975797  1
  C  C616  1  0.90842248  0.16689505  0.60747565  1
  Zn  Zn617  1  0.78704981  0.19462093  0.98989600  1
  H  H618  1  0.85438950  0.03774761  0.36289636  1
  C  C619  1  0.95977360  0.00840396  0.32656730  1
  C  C620  1  0.79057973  0.11246572  0.71622948  1
  H  H621  1  0.79716717  0.04376319  0.05489879  1
  O  O622  1  0.76567538  0.21368095  0.68121132  1
  N  N623  1  0.84990446  0.23215770  0.64031864  1
  C  C624  1  0.79338145  0.02370843  0.13578140  1
  C  C625  1  0.82521721  0.01903920  0.31520090  1
  H  H626  1  0.99444742  0.12111264  0.91333425  1
  C  C627  1  0.99317947  0.03220281  0.65540418  1
  H  H628  1  0.91869725  0.24682417  0.58655997  1
  O  O629  1  0.75424806  0.24652489  0.09478792  1
  H  H630  1  0.76647173  0.00350718  0.73888992  1
  C  C631  1  0.83538837  0.37890638  0.29853911  1
  H  H632  1  0.97100373  0.38311850  0.43021890  1
  N  N633  1  0.83236132  0.33093133  0.51088365  1
  H  H634  1  0.85093626  0.44150315  0.40206624  1
  H  H635  1  0.93525747  0.40478222  0.90405961  1
  N  N636  1  0.94793948  0.27293405  0.30312664  1
  N  N637  1  0.78575360  0.31976930  0.79482851  1
  C  C638  1  0.82142164  0.32992794  0.31103615  1
  H  H639  1  0.81410963  0.26992616  0.43729053  1
  C  C640  1  0.78325562  0.29311718  0.89160315  1
  C  C641  1  0.84391533  0.40053326  0.18537026  1
  H  H642  1  0.81042997  0.30889591  0.24001353  1
  C  C643  1  0.98126006  0.36276888  0.73381876  1
  N  N644  1  0.86737994  0.43196956  0.97050729  1
  H  H645  1  0.91254039  0.37134837  0.62569673  1
  H  H646  1  0.75802261  0.37874384  0.70787559  1
  C  C647  1  0.92230990  0.31019011  0.13348767  1
  H  H648  1  0.83748016  0.37336715  0.90562395  1
  H  H649  1  0.95365554  0.49323445  0.85995489  1
  C  C650  1  0.97540621  0.47239607  0.92014824  1
  C  C651  1  0.84509957  0.37786639  0.50293906  1
  H  H652  1  0.84950354  0.39436888  0.58144573  1
  C  C653  1  0.92066152  0.29400456  0.82059536  1
  H  H654  1  0.80557762  0.34219046  0.10452319  1
  C  C655  1  0.84584061  0.40183436  0.40179175  1
  H  H656  1  0.87526625  0.26512479  0.02098785  1
  H  H657  1  0.96725226  0.34078058  0.26780291  1
  C  C658  1  0.96947168  0.29909599  0.86459997  1
  N  N659  1  0.90145414  0.31755353  0.73526986  1
  C  C660  1  0.82316144  0.30898260  0.41694073  1
  C  C661  1  0.96716759  0.42339009  0.94445138  1
  Zn  Zn662  1  0.83666606  0.30371865  0.66242772  1
  H  H663  1  0.89298448  0.26717849  0.85829597  1
  C  C664  1  0.94489639  0.31001726  0.23566329  1
  H  H665  1  0.92638123  0.34323030  0.08501353  1
  C  C666  1  0.93103224  0.35172651  0.69510968  1
  H  H667  1  0.90893554  0.48272194  0.03369671  1
  C  C668  1  0.87481855  0.44220335  0.17395965  1
  C  C669  1  0.89648935  0.26857950  0.09985216  1
  C  C670  1  0.88187548  0.45515697  0.06367699  1
  H  H671  1  0.89130049  0.46354982  0.24440767  1
  C  C672  1  0.83941392  0.39167968  0.98460186  1
  C  C673  1  0.82608364  0.37552152  0.09208743  1
  O  O674  1  0.81426592  0.25989304  0.91279360  1
  C  C675  1  0.75642907  0.35913217  0.78278117  1
  H  H676  1  0.99477293  0.36296595  0.03706863  1
  H  H677  1  0.99577651  0.46134016  0.50719430  1
  H  H678  1  0.97846003  0.27931023  0.94131619  1
  C  C679  1  0.99740130  0.40225429  0.02375720  1
  O  O680  1  0.76212374  0.55611232  0.78170069  1
  C  C681  1  0.85387108  0.62375194  0.04230320  1
  C  C682  1  0.87776646  0.58872322  0.96792422  1
  C  C683  1  0.89831412  0.59579312  0.84701382  1
  H  H684  1  0.99600902  0.62810709  0.39749836  1
  H  H685  1  0.95144843  0.65355115  0.77057335  1
  O  O686  1  0.90995854  0.59340321  0.17212269  1
  H  H687  1  0.94947047  0.70671483  0.10923266  1
  H  H688  1  0.97196754  0.61900018  0.06283476  1
  O  O689  1  0.87683917  0.66042576  0.22044952  1
  C  C690  1  0.88181857  0.62847951  0.14988200  1
  C  C691  1  0.97837346  0.69902636  0.04566192  1
  C  C692  1  0.81711294  0.65635594  0.00520715  1
  C  C693  1  0.98834151  0.65076059  0.01944705  1
  H  H694  1  0.92115599  0.56463070  0.81616882  1
  C  C695  1  0.91343960  0.64389984  0.80412507  1
  N  N696  1  0.88659428  0.67685412  0.80455049  1
  H  H697  1  0.89483763  0.55672806  0.00989263  1
  O  O698  1  0.78323206  0.68148147  0.03398638  1
  Zn  Zn699  1  0.82113373  0.72277558  0.17970164  1
  O  O700  1  0.79496715  0.69597842  0.63064685  1
  Zn  Zn701  1  0.81882584  0.61390923  0.86730912  1
  C  C702  1  0.80421964  0.73205736  0.57505361  1
  C  C703  1  0.75953044  0.70707170  0.39244853  1
  O  O704  1  0.75599710  0.71985294  0.29215063  1
  O  O705  1  0.75193744  0.58511434  0.61209692  1
  C  C706  1  0.78631241  0.74303400  0.46332081  1
  H  H707  1  0.89677272  0.74984551  0.52087646  1
  C  C708  1  0.85455934  0.84678931  0.83563156  1
  H  H709  1  0.82355230  0.91010420  0.07056654  1
  N  N710  1  0.97550038  0.88499188  0.07584670  1
  H  H711  1  0.77371128  0.79727243  0.33760092  1
  O  O712  1  0.83510377  0.86704507  0.22715752  1
  C  C713  1  0.76430866  0.95830988  0.25641777  1
  H  H714  1  0.88243768  0.92349737  0.41450014  1
  C  C715  1  0.84865308  0.83346618  0.05435384  1
  N  N716  1  0.83603741  0.76825750  0.61744935  1
  C  C717  1  0.83773552  0.81208195  0.57806409  1
  H  H718  1  0.86198012  0.96417019  0.58491318  1
  C  C719  1  0.94911336  0.88303258  0.68301695  1
  C  C720  1  0.83744141  0.87941357  0.01761304  1
  C  C721  1  0.77820427  0.90141998  0.61340006  1
  C  C722  1  0.89891790  0.91124547  0.49206495  1
  C  C723  1  0.84183263  0.88658542  0.90305911  1
  H  H724  1  0.92316458  0.86285983  0.18546257  1
  N  N725  1  0.95233428  0.75483640  0.64739659  1
  C  C726  1  0.93072264  0.97982474  0.96688821  1
  C  C727  1  0.95820634  0.86381580  0.57796169  1
  C  C728  1  0.93512696  0.94377846  0.88921233  1
  C  C729  1  0.91428568  0.95780819  0.78344659  1
  H  H730  1  0.78793893  0.96885977  0.42394329  1
  H  H731  1  0.96008600  0.75967905  0.36280827  1
  C  C732  1  0.97301736  0.76193741  0.45079078  1
  C  C733  1  0.91700026  0.92421485  0.68797332  1
  H  H734  1  0.81508307  0.86379831  0.44318965  1
  C  C735  1  0.95177326  0.85016478  0.12594704  1
  C  C736  1  0.76315104  0.86740310  0.69271273  1
  H  H737  1  0.76280929  0.83055002  0.66878655  1
  H  H738  1  0.85661755  0.84779348  0.74578714  1
  C  C739  1  0.89091903  0.93669051  0.58808096  1
  Zn  Zn740  1  0.95770185  0.95982242  0.11575219  1
  H  H741  1  0.94357530  0.90666216  0.91520590  1
  C  C742  1  0.86281057  0.79331506  0.98283867  1
  H  H743  1  0.94202343  0.77326215  0.16151716  1
  N  N744  1  0.86834365  0.80251924  0.87439213  1
  C  C745  1  0.81363558  0.82529123  0.47954310  1
  C  C746  1  0.84669883  0.83076367  0.17520145  1
  C  C747  1  0.79013418  0.78965872  0.41912391  1
  H  H748  1  0.86838856  0.83110647  0.62555551  1
  C  C749  1  0.79350286  0.97987847  0.34259260  1
  O  O750  1  0.85379754  0.78918456  0.22324929  1
  N  N751  1  0.93899871  0.88063734  0.48142019  1
  C  C752  1  0.96314286  0.80096406  0.11729984  1
  N  N753  1  0.77543001  0.94929219  0.62989702  1
  H  H754  1  0.83734974  0.92291406  0.86611662  1
  C  C755  1  0.99666721  0.78654737  0.03229323  1
  H  H756  1  0.98196584  0.83334258  0.55353556  1
  H  H757  1  0.79604973  0.89391179  0.52920632  1
  C  C758  1  0.76638501  0.98063117  0.15096740  1
  C  C759  1  0.99177939  0.97841563  0.50016089  1
  H  H760  1  0.96594723  0.86491712  0.75953310  1
  C  C761  1  0.76097386  0.96294177  0.72979381  1
  H  H762  1  0.78782245  0.81087084  0.88500133  1
  C  C763  1  0.93877579  0.75406445  0.53903236  1
  Zn  Zn764  1  0.89672013  0.75030261  0.75652473  1
  O  O765  1  0.97218601  0.96784808  0.28522910  1
  O  O766  1  0.86628927  0.75254814  0.02645337  1
  H  H767  1  0.99971776  0.94196436  0.46206852  1
