# generated using pymatgen
data_ZnH8(C3N)4
_symmetry_space_group_name_H-M   'P 1'
_cell_length_a   35.55906305
_cell_length_b   36.38470578
_cell_length_c   33.62497831
_cell_angle_alpha   90.00000000
_cell_angle_beta   90.00000000
_cell_angle_gamma   90.00000000
_symmetry_Int_Tables_number   1
_chemical_formula_structural   ZnH8(C3N)4
_chemical_formula_sum   'Zn96 H768 C1152 N384'
_cell_volume   43504.20026435
_cell_formula_units_Z   96
loop_
 _symmetry_equiv_pos_site_id
 _symmetry_equiv_pos_as_xyz
  1  'x, y, z'
loop_
 _atom_site_type_symbol
 _atom_site_label
 _atom_site_symmetry_multiplicity
 _atom_site_fract_x
 _atom_site_fract_y
 _atom_site_fract_z
 _atom_site_occupancy
  C  C0  1  0.15817182  0.15799261  0.20550939  1
  C  C1  1  0.17863790  0.19066868  0.20106928  1
  N  N2  1  0.17680808  0.18421078  0.13011115  1
  C  C3  1  0.14857343  0.13887494  0.17020132  1
  H  H4  1  0.13233760  0.11328870  0.16986235  1
  C  C5  1  0.15834405  0.15252665  0.13275166  1
  H  H6  1  0.15004281  0.14009847  0.10350932  1
  C  C7  1  0.18857639  0.20142673  0.16262685  1
  C  C8  1  0.05259720  0.13920634  0.13768306  1
  Zn  Zn9  1  0.19466979  0.20061548  0.07687948  1
  C  C10  1  0.05836208  0.17872925  0.12094248  1
  N  N11  1  0.07307198  0.20547409  0.14376622  1
  Zn  Zn12  1  0.08803498  0.19891740  0.20242425  1
  N  N13  1  0.04059464  0.18208252  0.08494475  1
  H  H14  1  0.08696850  0.14321242  0.21936102  1
  C  C15  1  0.03817616  0.21679943  0.07154871  1
  C  C16  1  0.02973691  0.13432669  0.17073189  1
  C  C17  1  0.06940678  0.10745999  0.12147294  1
  H  H18  1  0.20828255  0.22651290  0.15408892  1
  H  H19  1  0.08297145  0.10891916  0.09182141  1
  C  C20  1  0.06714283  0.23635569  0.12294078  1
  C  C21  1  0.14618046  0.23187283  0.01873265  1
  H  H22  1  0.18582171  0.20468559  0.22771211  1
  H  H23  1  0.01180350  0.21720145  0.21306772  1
  N  N24  1  0.22968440  0.15906961  0.06336100  1
  C  C25  1  0.02730067  0.09983662  0.18976318  1
  N  N26  1  0.17300761  0.23967076  0.04557156  1
  C  C27  1  0.06215613  0.07375357  0.13996270  1
  H  H28  1  0.13664897  0.20153651  0.01734482  1
  H  H29  1  0.23126336  0.14537208  0.12413175  1
  H  H30  1  0.01497204  0.16006823  0.18258286  1
  N  N31  1  0.10663709  0.13417206  0.24311646  1
  C  C32  1  0.14516649  0.14198116  0.24545767  1
  C  C33  1  0.02206585  0.21917903  0.24363114  1
  C  C34  1  0.00863988  0.21994938  0.03617122  1
  H  H35  1  0.07117659  0.04409410  0.13100782  1
  H  H36  1  0.01339175  0.09460934  0.21922962  1
  N  N37  1  0.04361474  0.07047810  0.17442040  1
  N  N38  1  0.06121358  0.00459548  0.00344246  1
  N  N39  1  0.05977030  0.21261614  0.24746353  1
  H  H40  1  0.22680897  0.16783061  0.00317845  1
  C  C41  1  0.23951736  0.15073198  0.02598091  1
  C  C42  1  0.24212549  0.13827925  0.09400412  1
  N  N43  1  0.05178494  0.24852665  0.08638792  1
  C  C44  1  0.49898648  0.00727087  0.04477967  1
  C  C45  1  0.47524650  0.19910933  0.13031909  1
  H  H46  1  0.27797574  0.09566642  0.11391456  1
  C  C47  1  0.26908827  0.11107805  0.08808684  1
  C  C48  1  0.28591235  0.10618986  0.05136695  1
  N  N49  1  0.35421513  0.10174097  0.06705767  1
  C  C50  1  0.38453681  0.08352682  0.05380065  1
  C  C51  1  0.42145320  0.09255562  0.07460599  1
  C  C52  1  0.44153126  0.06995201  0.10273395  1
  C  C53  1  0.44067434  0.12394000  0.06199866  1
  H  H54  1  0.42906889  0.04261434  0.11189552  1
  C  C55  1  0.32508682  0.08647695  0.04509859  1
  H  H56  1  0.39957866  0.14176825  0.15638158  1
  C  C57  1  0.41790319  0.16117499  0.14078421  1
  Zn  Zn58  1  0.35274419  0.15430923  0.08914961  1
  C  C59  1  0.45485353  0.17398434  0.15160262  1
  C  C60  1  0.41751217  0.20277593  0.09123452  1
  N  N61  1  0.32579523  0.19896219  0.07562661  1
  N  N62  1  0.40003435  0.17511890  0.10998977  1
  C  C63  1  0.45338007  0.21582192  0.10012465  1
  H  H64  1  0.40288186  0.20820062  0.06384796  1
  H  H65  1  0.42802810  0.14613028  0.04374834  1
  C  C66  1  0.47482596  0.08308883  0.11972801  1
  C  C67  1  0.47595342  0.13323518  0.07980644  1
  C  C68  1  0.30637879  0.19896161  0.04086473  1
  C  C69  1  0.32977850  0.23053761  0.09463904  1
  H  H70  1  0.46966272  0.16309581  0.17862703  1
  H  H71  1  0.35038988  0.22596223  0.11798454  1
  H  H72  1  0.30924481  0.17110331  0.02768055  1
  N  N73  1  0.38705719  0.05999910  0.02071382  1
  C  C74  1  0.26713004  0.12414250  0.02012435  1
  H  H75  1  0.44487449  0.24128523  0.01629929  1
  C  C76  1  0.28774738  0.22995908  0.02589895  1
  C  C77  1  0.44423671  0.21263933  0.00409689  1
  H  H78  1  0.30383053  0.00534427  0.08853579  1
  C  C79  1  0.47174439  0.18468301  0.00217638  1
  H  H80  1  0.48556249  0.02549978  0.06403695  1
  H  H81  1  0.48997775  0.07027439  0.14257369  1
  N  N82  1  0.49398938  0.11270081  0.10678374  1
  N  N83  1  0.40791210  0.20447626  0.00052712  1
  H  H84  1  0.49167033  0.15765548  0.07104036  1
  Zn  Zn85  1  0.27015873  0.02534268  0.01546862  1
  N  N86  1  0.31805910  0.06074660  0.01592283  1
  H  H87  1  0.46717659  0.23673877  0.08066308  1
  N  N88  1  0.48722878  0.08352956  0.00236839  1
  C  C89  1  0.35280598  0.04839445  0.00791975  1
  C  C90  1  0.00865816  0.37770215  0.02223731  1
  H  H91  1  0.22768237  0.43608845  0.14460390  1
  H  H92  1  0.14140777  0.25970422  0.12017028  1
  H  H93  1  0.01648649  0.39994585  0.16075968  1
  H  H94  1  0.21181248  0.27936240  0.06581605  1
  C  C95  1  0.18560814  0.27432404  0.04716872  1
  C  C96  1  0.08609809  0.27071999  0.14378947  1
  C  C97  1  0.12374106  0.27920386  0.13846013  1
  C  C98  1  0.20961044  0.41858068  0.20137311  1
  H  H99  1  0.03662835  0.29065735  0.17491480  1
  Zn  Zn100  1  0.06504031  0.29260945  0.05414839  1
  C  C101  1  0.06574836  0.29604302  0.16733338  1
  C  C102  1  0.13862793  0.31486986  0.14710883  1
  H  H103  1  0.16661368  0.32531480  0.14162060  1
  C  C104  1  0.08238519  0.33111762  0.17449257  1
  N  N105  1  0.11806860  0.33996573  0.16563114  1
  H  H106  1  0.15940833  0.44927198  0.11679021  1
  N  N107  1  0.03587045  0.46288194  0.19737432  1
  C  C108  1  0.14198102  0.43623611  0.09264913  1
  C  C109  1  0.16187935  0.42319505  0.05827076  1
  H  H110  1  0.06892557  0.35574789  0.18772525  1
  N  N111  1  0.09566664  0.43342956  0.16586708  1
  N  N112  1  0.17379213  0.42673752  0.19672451  1
  Zn  Zn113  1  0.13542577  0.39000096  0.17802423  1
  C  C114  1  0.10349355  0.43190944  0.09385191  1
  C  C115  1  0.03010398  0.47255733  0.15653627  1
  N  N116  1  0.04722143  0.46120286  0.12386970  1
  C  C117  1  0.07222920  0.44863680  0.19374168  1
  C  C118  1  0.08641552  0.41576814  0.05942918  1
  H  H119  1  0.05692304  0.41103781  0.05893117  1
  C  C120  1  0.10888750  0.40178958  0.02765161  1
  C  C121  1  0.07951745  0.44382939  0.13128692  1
  C  C122  1  0.16381170  0.46135999  0.20134411  1
  N  N123  1  0.14683475  0.40556869  0.02817388  1
  H  H124  1  0.20912646  0.38873244  0.19349917  1
  C  C125  1  0.22703694  0.48094271  0.21273098  1
  H  H126  1  0.13271525  0.46469233  0.19510948  1
  H  H127  1  0.19171179  0.42269531  0.05181377  1
  C  C128  1  0.18971470  0.49034346  0.20963926  1
  C  C129  1  0.23983230  0.44327137  0.20898767  1
  H  H130  1  0.02377663  0.40431692  0.01751808  1
  C  C131  1  0.16671023  0.30499826  0.03003736  1
  C  C132  1  0.24651506  0.35441654  0.03314333  1
  H  H133  1  0.09794933  0.38880961  0.00122621  1
  C  C134  1  0.13795996  0.29848341  0.00239873  1
  H  H135  1  0.21599788  0.37691553  0.10638845  1
  C  C136  1  0.23511201  0.39694215  0.09508931  1
  H  H137  1  0.17615594  0.33354915  0.03811542  1
  C  C138  1  0.08616594  0.44829551  0.23770755  1
  C  C139  1  0.23855461  0.43094357  0.11530881  1
  H  H140  1  0.08429858  0.39114167  0.24539021  1
  C  C141  1  0.24891502  0.39203452  0.05548392  1
  H  H142  1  0.44139892  0.46728044  0.08394029  1
  C  C143  1  0.26977543  0.42156451  0.03922233  1
  H  H144  1  0.28262614  0.41787994  0.00923578  1
  C  C145  1  0.28897632  0.26303016  0.04756486  1
  N  N146  1  0.43331636  0.46229579  0.02527861  1
  H  H147  1  0.29339356  0.47800304  0.05424787  1
  N  N148  1  0.26373973  0.32718976  0.05206577  1
  C  C149  1  0.44291746  0.48292271  0.05600769  1
  H  H150  1  0.26961884  0.43688887  0.20761120  1
  C  C151  1  0.27566032  0.45291398  0.06296170  1
  H  H152  1  0.31571967  0.28995837  0.09798364  1
  C  C153  1  0.26986151  0.29662171  0.03138590  1
  N  N154  1  0.26150099  0.45653732  0.09904004  1
  C  C155  1  0.31309967  0.26372423  0.08194300  1
  C  C156  1  0.14204612  0.10886287  0.37900292  1
  C  C157  1  0.20459416  0.11614498  0.34895144  1
  C  C158  1  0.15957778  0.10837899  0.41636833  1
  N  N159  1  0.19604798  0.11552620  0.42028915  1
  C  C160  1  0.21841317  0.11841253  0.38831150  1
  H  H161  1  0.11247553  0.10467732  0.37561933  1
  Zn  Zn162  1  0.21730116  0.11965201  0.47483439  1
  C  C163  1  0.16598919  0.11342030  0.34482411  1
  H  H164  1  0.22324378  0.12051402  0.32344979  1
  C  C165  1  0.14389193  0.18928847  0.45335247  1
  Zn  Zn166  1  0.11023826  0.04182066  0.32783078  1
  N  N167  1  0.11434802  0.09647553  0.30331724  1
  C  C168  1  0.14788236  0.11623596  0.30283427  1
  H  H169  1  0.14312723  0.10393293  0.44432233  1
  C  C170  1  0.18263000  0.03621398  0.29086621  1
  C  C171  1  0.10581809  0.20162841  0.45143531  1
  N  N172  1  0.07197719  0.02647381  0.36720540  1
  N  N173  1  0.10793172  0.20117484  0.37952758  1
  C  C174  1  0.16246056  0.18146880  0.41722810  1
  H  H175  1  0.20933029  0.04995627  0.41205578  1
  C  C176  1  0.07595149  0.21567235  0.28276655  1
  H  H177  1  0.10469172  0.20375483  0.28363373  1
  N  N178  1  0.15398696  0.01476931  0.30423107  1
  C  C179  1  0.14149115  0.18623900  0.38095522  1
  H  H180  1  0.19037378  0.17059632  0.41574406  1
  H  H181  1  0.14970248  0.18198503  0.34945320  1
  C  C182  1  0.05505214  0.22405472  0.31755469  1
  H  H183  1  0.06870083  0.22569204  0.34728236  1
  N  N184  1  0.16682624  0.13721576  0.27608294  1
  H  H185  1  0.17616925  0.06478285  0.29190375  1
  C  C186  1  0.09521695  0.11051209  0.27208981  1
  C  C187  1  0.05200355  0.10185552  0.27527006  1
  C  C188  1  0.02982868  0.13349370  0.27194674  1
  C  C189  1  0.03565005  0.06662455  0.27640931  1
  C  C190  1  0.08879322  0.20532551  0.41353334  1
  C  C191  1  0.02986699  0.13465981  0.46920855  1
  H  H192  1  0.04914730  0.11248425  0.46372128  1
  C  C193  1  0.02024319  0.16242387  0.44118609  1
  H  H194  1  0.03247994  0.16192707  0.41180677  1
  C  C195  1  0.01547120  0.22741967  0.31481549  1
  C  C196  1  0.21513813  0.02233711  0.27320093  1
  N  N197  1  0.21608846  0.06383606  0.49213798  1
  H  H198  1  0.03989957  0.16192285  0.27251115  1
  C  C199  1  0.23803861  0.03723114  0.40968979  1
  H  H200  1  0.05306312  0.04181209  0.27653102  1
  H  H201  1  0.09336122  0.21120954  0.47914447  1
  H  H202  1  0.05992654  0.21406992  0.40501238  1
  C  C203  1  0.03802347  0.01504515  0.35772714  1
  H  H204  1  0.23092621  0.02049458  0.34879117  1
  C  C205  1  0.00033717  0.22929500  0.27638230  1
  H  H206  1  0.03395871  0.01090469  0.32566757  1
  N  N207  1  0.00074665  0.21603896  0.38947602  1
  H  H208  1  0.10774401  0.03475692  0.41060581  1
  C  C209  1  0.07902223  0.02464572  0.40628763  1
  C  C210  1  0.05340702  0.01543866  0.43596445  1
  H  H211  1  0.05866601  0.02032862  0.46796400  1
  H  H212  1  0.24836431  0.12403718  0.39772203  1
  C  C213  1  0.01621128  0.00274805  0.42641693  1
  C  C214  1  0.16168906  0.18697733  0.49513994  1
  C  C215  1  0.24531327  0.04108520  0.48587909  1
  C  C216  1  0.01029952  0.00252723  0.38513829  1
  H  H217  1  0.23523613  0.04189767  0.26008723  1
  C  C218  1  0.25001474  0.02242510  0.37403017  1
  C  C219  1  0.46344520  0.01159037  0.38753952  1
  C  C220  1  0.26066793  0.03228493  0.44449527  1
  H  H221  1  0.45801643  0.03458256  0.40892191  1
  N  N222  1  0.28266283  0.00471475  0.36853677  1
  C  C223  1  0.29515382  0.01522438  0.43699441  1
  H  H224  1  0.31431462  0.00901532  0.46249268  1
  C  C225  1  0.30704303  0.00506198  0.39978620  1
  C  C226  1  0.49616321  0.00232102  0.36699422  1
  C  C227  1  0.08989985  0.41652356  0.26111435  1
  C  C228  1  0.10838940  0.48269492  0.29503659  1
  C  C229  1  0.10245989  0.42075031  0.30030875  1
  H  H230  1  0.10547634  0.39900419  0.32295599  1
  N  N231  1  0.10943322  0.45369587  0.31849407  1
  C  C232  1  0.09707220  0.48225494  0.25457525  1
  H  H233  1  0.44384936  0.46519927  0.34909262  1
  N  N234  1  0.40484596  0.49980680  0.34396265  1
  C  C235  1  0.43420479  0.49081474  0.36441399  1
  N  N236  1  0.20772937  0.03732498  0.55987774  1
  N  N237  1  0.18419433  0.19459853  0.57395724  1
  C  C238  1  0.15496258  0.21259299  0.55758397  1
  C  C239  1  0.19691345  0.05559018  0.52833377  1
  C  C240  1  0.15613858  0.06825186  0.53310923  1
  C  C241  1  0.19956905  0.17533710  0.54312254  1
  N  N242  1  0.07897836  0.08511271  0.54215553  1
  Zn  Zn243  1  0.20075468  0.18912829  0.63217067  1
  H  H244  1  0.20023091  0.10730777  0.58232366  1
  H  H245  1  0.08092075  0.22091975  0.58641305  1
  Zn  Zn246  1  0.02468236  0.09049386  0.53880046  1
  N  N247  1  0.14286325  0.20866187  0.52026038  1
  H  H248  1  0.14213786  0.01671864  0.56471614  1
  H  H249  1  0.07291877  0.03830232  0.57242365  1
  C  C250  1  0.13309270  0.04504263  0.55665515  1
  C  C251  1  0.09559193  0.05590561  0.56002476  1
  C  C252  1  0.02120095  0.22163755  0.72644620  1
  C  C253  1  0.14215930  0.10230846  0.51860557  1
  C  C254  1  0.10265983  0.10717651  0.52300088  1
  C  C255  1  0.10256414  0.24103098  0.59885049  1
  N  N256  1  0.23287010  0.22464676  0.65626305  1
  C  C257  1  0.22950058  0.11834147  0.57735307  1
  H  H258  1  0.08990254  0.13066525  0.50889251  1
  N  N259  1  0.00104013  0.24392315  0.70371670  1
  C  C260  1  0.01302391  0.00358362  0.52013218  1
  C  C261  1  0.13990877  0.24357153  0.58589289  1
  C  C262  1  0.24045880  0.02270038  0.55083492  1
  C  C263  1  0.23470112  0.15241005  0.55943677  1
  N  N264  1  0.05766699  0.22439742  0.73897308  1
  N  N265  1  0.01396308  0.13279799  0.50555818  1
  H  H266  1  0.15953849  0.12158011  0.50054781  1
  N  N267  1  0.19320086  0.16667447  0.50410825  1
  H  H268  1  0.23839529  0.19300057  0.70111190  1
  C  C269  1  0.24685183  0.22036852  0.69264720  1
  H  H270  1  0.01164920  0.00716609  0.60754222  1
  C  C271  1  0.25665013  0.00447391  0.58962112  1
  C  C272  1  0.35409919  0.00303226  0.70576495  1
  N  N273  1  0.26018258  0.02333751  0.51661450  1
  N  N274  1  0.47633487  0.01024363  0.67091018  1
  C  C275  1  0.46358556  0.00631211  0.70653567  1
  H  H276  1  0.25865588  0.06931840  0.60674649  1
  C  C277  1  0.26044314  0.09698124  0.59049396  1
  H  H278  1  0.27856934  0.19428349  0.54776644  1
  C  C279  1  0.27064408  0.16676756  0.55887071  1
  H  H280  1  0.39742163  0.04651857  0.70002929  1
  N  N281  1  0.37398428  0.08868216  0.64869773  1
  C  C282  1  0.41059391  0.08583838  0.64257684  1
  Zn  Zn283  1  0.33734765  0.07968658  0.60689226  1
  C  C284  1  0.42681577  0.10552833  0.70927364  1
  C  C285  1  0.38814362  0.11232229  0.71449714  1
  C  C286  1  0.36275601  0.10422010  0.68308801  1
  N  N287  1  0.29540333  0.11049515  0.59054340  1
  H  H288  1  0.33216814  0.11268317  0.68358367  1
  H  H289  1  0.41778705  0.07602057  0.61292579  1
  C  C290  1  0.43831639  0.09429872  0.67199262  1
  C  C291  1  0.29976551  0.14192656  0.57284925  1
  H  H292  1  0.33235435  0.14686893  0.57271729  1
  H  H293  1  0.46924680  0.09096069  0.66669621  1
  C  C294  1  0.39153513  0.01701700  0.70222113  1
  H  H295  1  0.32756681  0.01824450  0.70378827  1
  C  C296  1  0.45944127  0.11293193  0.74010953  1
  H  H297  1  0.37825458  0.12418580  0.74318202  1
  C  C298  1  0.26646300  0.24801437  0.71477544  1
  N  N299  1  0.47197370  0.01719282  0.74597192  1
  H  H300  1  0.27533144  0.24611831  0.74585110  1
  H  H301  1  0.49390466  0.01015348  0.59085883  1
  N  N302  1  0.49069236  0.12696004  0.72374073  1
  H  H303  1  0.23317023  0.25295732  0.60592021  1
  C  C304  1  0.24364414  0.25482692  0.63603021  1
  H  H305  1  0.06454498  0.26319721  0.64730706  1
  C  C306  1  0.00358570  0.30164969  0.66689613  1
  C  C307  1  0.07585961  0.25410893  0.72700592  1
  H  H308  1  0.14343881  0.27375259  0.68595656  1
  C  C309  1  0.14734025  0.27062370  0.71791273  1
  C  C310  1  0.09190197  0.26552025  0.62970450  1
  C  C311  1  0.01283289  0.31278900  0.62812969  1
  H  H312  1  0.20937291  0.28689215  0.71467162  1
  H  H313  1  0.02897235  0.29370549  0.60892934  1
  C  C314  1  0.16141082  0.27383903  0.60057888  1
  H  H315  1  0.19019682  0.28094804  0.58928487  1
  N  N316  1  0.11118830  0.29407177  0.64189444  1
  C  C317  1  0.14608844  0.29869775  0.62734371  1
  H  H318  1  0.15897759  0.32407144  0.63876207  1
  H  H319  1  0.23241369  0.41520045  0.71182630  1
  H  H320  1  0.08017114  0.39246162  0.55069539  1
  H  H321  1  0.04412749  0.46094391  0.65012303  1
  N  N322  1  0.05826174  0.27963508  0.70484334  1
  Zn  Zn323  1  0.08866527  0.32811126  0.68601866  1
  H  H324  1  0.16418714  0.39782697  0.69257579  1
  H  H325  1  0.09641735  0.33982272  0.60455269  1
  C  C326  1  0.07549284  0.39542779  0.58359419  1
  H  H327  1  0.06577168  0.39978203  0.69472219  1
  C  C328  1  0.03543743  0.45928887  0.57615621  1
  C  C329  1  0.05642779  0.43337494  0.63934067  1
  C  C330  1  0.08590278  0.36746508  0.60966859  1
  N  N331  1  0.08049655  0.37155507  0.64937544  1
  C  C332  1  0.05809105  0.42847213  0.59746302  1
  C  C333  1  0.06799437  0.40318519  0.66298743  1
  N  N334  1  0.05657596  0.48317892  0.55512982  1
  C  C335  1  0.02268050  0.27037720  0.69210803  1
  C  C336  1  0.17230461  0.39628680  0.72381844  1
  H  H337  1  0.18357543  0.46565290  0.72590242  1
  C  C338  1  0.21013176  0.40585912  0.73330380  1
  C  C339  1  0.18389514  0.27877145  0.73282908  1
  C  C340  1  0.04739317  0.47367666  0.73401498  1
  H  H341  1  0.01537557  0.36402124  0.58816985  1
  C  C342  1  0.17732230  0.49631680  0.72453222  1
  C  C343  1  0.01276476  0.48877156  0.74765455  1
  H  H344  1  0.09918205  0.48794023  0.69928586  1
  H  H345  1  0.24451009  0.46951383  0.64124175  1
  C  C346  1  0.00346740  0.34847625  0.61434240  1
  N  N347  1  0.08137514  0.36166302  0.74284325  1
  C  C348  1  0.06119981  0.43478609  0.74690726  1
  C  C349  1  0.11626130  0.26060852  0.74164184  1
  C  C350  1  0.07013779  0.49663651  0.70995274  1
  N  N351  1  0.09869777  0.43035548  0.74703232  1
  C  C352  1  0.10330580  0.39287338  0.74748903  1
  C  C353  1  0.49214354  0.42864322  0.68487064  1
  N  N354  1  0.29905079  0.34538826  0.69296376  1
  C  C355  1  0.30672816  0.41410110  0.69117550  1
  H  H356  1  0.46876174  0.42702484  0.70541853  1
  C  C357  1  0.33422564  0.44268773  0.69797265  1
  C  C358  1  0.29009063  0.31534934  0.71535475  1
  C  C359  1  0.27479391  0.28085747  0.69424769  1
  H  H360  1  0.35924039  0.43741927  0.71668437  1
  C  C361  1  0.27688686  0.42442513  0.66651834  1
  N  N362  1  0.29298716  0.48791977  0.66617086  1
  H  H363  1  0.25714614  0.40278631  0.65865421  1
  C  C364  1  0.32506196  0.47864623  0.68427476  1
  C  C365  1  0.26953028  0.46156760  0.65616125  1
  C  C366  1  0.30820738  0.37644811  0.71135754  1
  H  H367  1  0.27192585  0.30901340  0.63742071  1
  C  C368  1  0.26430830  0.28345154  0.65386706  1
  C  C369  1  0.49590698  0.40051721  0.65614169  1
  H  H370  1  0.47563005  0.37780826  0.64753144  1
  C  C371  1  0.03365383  0.03226028  0.94031701  1
  C  C372  1  0.01649551  0.06723759  0.94733222  1
  H  H373  1  0.02826567  0.11446180  0.80521514  1
  C  C374  1  0.01174987  0.13675350  0.79238034  1
  C  C375  1  0.03125305  0.01742511  0.90207187  1
  H  H376  1  0.01474427  0.07739916  0.97736694  1
  H  H377  1  0.00722838  0.03125707  0.84163432  1
  C  C378  1  0.02876115  0.01156456  0.98183634  1
  C  C379  1  0.02379614  0.16363302  0.76601105  1
  C  C380  1  0.01413696  0.03928735  0.87232456  1
  H  H381  1  0.05503948  0.16769486  0.76228505  1
  Zn  Zn382  1  0.10945255  0.00260499  0.98089630  1
  H  H383  1  0.04472042  0.20453669  0.98504854  1
  H  H384  1  0.10345599  0.00639901  0.89956244  1
  C  C385  1  0.01576717  0.21112230  0.99687429  1
  C  C386  1  0.49388580  0.09567457  0.87353765  1
  C  C387  1  0.49326653  0.11996365  0.98921157  1
  N  N388  1  0.43741808  0.00511436  0.97191563  1
  H  H389  1  0.47199595  0.01546813  0.92662819  1
  C  C390  1  0.46741505  0.10742917  0.84503158  1
  C  C391  1  0.43054208  0.10855449  0.86101195  1
  C  C392  1  0.42217553  0.09256488  0.89722696  1
  N  N393  1  0.44828896  0.08270098  0.92328441  1
  H  H394  1  0.37120482  0.04369087  0.93209757  1
  C  C395  1  0.36572826  0.01597827  0.94288654  1
  H  H396  1  0.39595276  0.08786654  0.91327695  1
  H  H397  1  0.40940580  0.11713862  0.83955484  1
  H  H398  1  0.41421415  0.11621717  0.96527496  1
  C  C399  1  0.42325658  0.14256009  0.97925646  1
  N  N400  1  0.38621905  0.02123450  0.79664290  1
  C  C401  1  0.35026422  0.01274774  0.98201693  1
  Zn  Zn402  1  0.43424274  0.05942811  0.98301896  1
  N  N403  1  0.37737990  0.19169475  0.86570187  1
  C  C404  1  0.39783722  0.19912191  0.83372288  1
  C  C405  1  0.45127143  0.22523312  0.86783556  1
  Zn  Zn406  1  0.43333414  0.04470391  0.78292538  1
  C  C407  1  0.39571885  0.19956916  0.89995304  1
  C  C408  1  0.43318123  0.21675833  0.83084945  1
  N  N409  1  0.44619091  0.10026466  0.77714772  1
  C  C410  1  0.35742087  0.04274821  0.80653451  1
  C  C411  1  0.32092681  0.02857664  0.81091207  1
  C  C412  1  0.47331307  0.11455491  0.79999367  1
  H  H413  1  0.37820304  0.19479994  0.92611132  1
  C  C414  1  0.43257117  0.21273741  0.90206238  1
  H  H415  1  0.36445078  0.07380265  0.80583577  1
  H  H416  1  0.29563742  0.04727178  0.81546071  1
  H  H417  1  0.38087512  0.18594326  0.81149213  1
  C  C418  1  0.48357162  0.08571558  0.91238076  1
  H  H419  1  0.36526463  0.16951533  0.98298087  1
  H  H420  1  0.27941511  0.12349067  0.98935970  1
  C  C421  1  0.39778824  0.17152552  0.98634393  1
  C  C422  1  0.46119340  0.14767987  0.99113469  1
  H  H423  1  0.44580259  0.21666024  0.92985920  1
  H  H424  1  0.27410353  0.22738173  0.99774775  1
  C  C425  1  0.49048894  0.24186874  0.87313933  1
  H  H426  1  0.44415429  0.22501840  0.80146735  1
  H  H427  1  0.10617938  0.25364357  0.80168193  1
  C  C428  1  0.12900939  0.26349216  0.78149719  1
  H  H429  1  0.17254426  0.27848605  0.82627786  1
  C  C430  1  0.01292451  0.30809446  0.76643550  1
  C  C431  1  0.16391251  0.27351397  0.79573985  1
  Zn  Zn432  1  0.13126387  0.46692323  0.78497035  1
  N  N433  1  0.13148522  0.35213704  0.95854249  1
  H  H434  1  0.06910132  0.43940429  0.82616704  1
  H  H435  1  0.16892584  0.40536751  0.91868113  1
  C  C436  1  0.14981178  0.43193485  0.86466913  1
  C  C437  1  0.10982948  0.39619129  0.90754014  1
  C  C438  1  0.08844310  0.43066096  0.84988259  1
  H  H439  1  0.05227716  0.40102133  0.88848390  1
  C  C440  1  0.08034368  0.40991397  0.88384911  1
  C  C441  1  0.10142760  0.36852056  0.94064375  1
  C  C442  1  0.14609212  0.41057199  0.89934577  1
  N  N443  1  0.12281610  0.44066411  0.83894245  1
  H  H444  1  0.14550876  0.37392970  0.81617612  1
  C  C445  1  0.16179728  0.38404996  0.79272663  1
  C  C446  1  0.19978667  0.39372695  0.79825955  1
  N  N447  1  0.06480771  0.36811706  0.95173366  1
  H  H448  1  0.03831887  0.29089721  0.76498840  1
  H  H449  1  0.21363857  0.39364632  0.82810693  1
  H  H450  1  0.17549269  0.44629984  0.85260309  1
  C  C451  1  0.21299384  0.33037098  0.86582072  1
  C  C452  1  0.21071306  0.33449569  0.90768748  1
  H  H453  1  0.18339481  0.34199919  0.91947124  1
  H  H454  1  0.19065602  0.33163366  0.84301083  1
  N  N455  1  0.22314057  0.40769601  0.77050665  1
  N  N456  1  0.19251996  0.28202375  0.77127400  1
  H  H457  1  0.22795124  0.47694142  0.76949188  1
  C  C458  1  0.05506034  0.34351450  0.97846270  1
  C  C459  1  0.24148057  0.32573090  0.93187370  1
  C  C460  1  0.11186948  0.32756000  0.98473521  1
  N  N461  1  0.24198571  0.31719031  0.84522450  1
  Zn  Zn462  1  0.17675434  0.38250067  0.98586078  1
  N  N463  1  0.23234456  0.35891278  0.99511074  1
  C  C464  1  0.24500941  0.32802552  0.97757584  1
  C  C465  1  0.01504474  0.34675989  0.76511151  1
  Zn  Zn466  1  0.24040657  0.30392388  0.78938711  1
  C  C467  1  0.04663831  0.37371853  0.75372920  1
  H  H468  1  0.10732513  0.25290880  0.97531642  1
  C  C469  1  0.01500208  0.34763903  0.99891415  1
  C  C470  1  0.14622487  0.38882328  0.75469450  1
  N  N471  1  0.03538720  0.40903258  0.75420800  1
  C  C472  1  0.12890063  0.26031861  0.99808526  1
  N  N473  1  0.07629297  0.31741589  0.99655652  1
  H  H474  1  0.30543491  0.38995892  0.83447963  1
  H  H475  1  0.48784478  0.45060039  0.80028625  1
  H  H476  1  0.49535402  0.38231907  0.77618639  1
  N  N477  1  0.43388744  0.37896138  0.83075654  1
  C  C478  1  0.48953063  0.38256619  0.87113722  1
  C  C479  1  0.25223207  0.49509806  0.76915896  1
  C  C480  1  0.32296285  0.36540113  0.83848510  1
  C  C481  1  0.36574515  0.30356344  0.85213994  1
  N  N482  1  0.26104207  0.29705380  0.99315816  1
  C  C483  1  0.27286055  0.31279113  0.86784011  1
  H  H484  1  0.29964647  0.30671180  0.92514180  1
  C  C485  1  0.32846003  0.34090203  0.80716572  1
  C  C486  1  0.44032323  0.47698611  0.99031814  1
  H  H487  1  0.35903072  0.29202402  0.78986637  1
  C  C488  1  0.47937879  0.42752049  0.82007796  1
  H  H489  1  0.43085551  0.41167640  0.78314394  1
  H  H490  1  0.48502043  0.49905747  0.92385525  1
  C  C491  1  0.49037820  0.49934520  0.85473030  1
  N  N492  1  0.36090751  0.32700326  0.88352384  1
  C  C493  1  0.45453852  0.36692424  0.86069676  1
  H  H494  1  0.33961961  0.37122542  0.90360402  1
  C  C495  1  0.31525072  0.48988776  0.77670253  1
  H  H496  1  0.43877137  0.34429693  0.87386330  1
  H  H497  1  0.43772784  0.45340764  0.96865866  1
  Zn  Zn498  1  0.27569096  0.42109812  0.78462246  1
  H  H499  1  0.48186743  0.32320958  0.81437735  1
  C  C500  1  0.27332193  0.31476560  0.90910167  1
  H  H501  1  0.38518260  0.28234789  0.86220879  1
  C  C502  1  0.31047421  0.34645045  0.76485144  1
  C  C503  1  0.35116776  0.30987033  0.81402674  1
  N  N504  1  0.28160104  0.47476722  0.77881768  1
  H  H505  1  0.29710133  0.30503181  0.84644958  1
  N  N506  1  0.29123714  0.31360880  0.75564812  1
  C  C507  1  0.34060022  0.35573821  0.87554856  1
  H  H508  1  0.46635578  0.48279154  0.84735151  1
  H  H509  1  0.33652501  0.46881466  0.78401451  1
  N  N510  1  0.31043083  0.38190812  0.75301661  1
  C  C511  1  0.44757756  0.40755235  0.80992246  1
  C  C512  1  0.19609626  0.71900032  0.03732619  1
  H  H513  1  0.17969246  0.51947276  0.21276777  1
  H  H514  1  0.19554173  0.68765846  0.03915050  1
  H  H515  1  0.17661484  0.73259474  0.10026410  1
  H  H516  1  0.23815486  0.69873779  0.24960122  1
  C  C517  1  0.18515078  0.74226888  0.06961307  1
  H  H518  1  0.09715124  0.50865827  0.23867910  1
  C  C519  1  0.20899464  0.73778751  0.00314803  1
  H  H520  1  0.11178077  0.71304408  0.19635219  1
  H  H521  1  0.03909497  0.72760224  0.21658340  1
  C  C522  1  0.10081189  0.73977661  0.20675528  1
  N  N523  1  0.24114086  0.53814019  0.23765065  1
  C  C524  1  0.06353909  0.74624614  0.21932945  1
  N  N525  1  0.24518893  0.74982737  0.21278962  1
  H  H526  1  0.00441082  0.50090252  0.08549366  1
  Zn  Zn527  1  0.27650694  0.50099469  0.12754503  1
  C  C528  1  0.25548665  0.64085358  0.24586566  1
  C  C529  1  0.25530135  0.51311131  0.21499276  1
  H  H530  1  0.34788933  0.50516330  0.14620098  1
  H  H531  1  0.28323383  0.64607179  0.23250099  1
  H  H532  1  0.26505130  0.69402723  0.16067282  1
  C  C533  1  0.45807841  0.51864566  0.05334954  1
  H  H534  1  0.34006951  0.61801453  0.18583768  1
  N  N535  1  0.29742354  0.57583988  0.22324065  1
  C  C536  1  0.35423197  0.53520463  0.14516587  1
  C  C537  1  0.37157122  0.54609990  0.11074553  1
  N  N538  1  0.38166366  0.58198661  0.10499573  1
  C  C539  1  0.33763541  0.56156771  0.17148439  1
  C  C540  1  0.37338676  0.60652019  0.13182744  1
  H  H541  1  0.38415507  0.63579592  0.12398727  1
  C  C542  1  0.30671207  0.54960627  0.19970482  1
  C  C543  1  0.35054435  0.59768462  0.16571744  1
  H  H544  1  0.38080920  0.52771311  0.08534746  1
  C  C545  1  0.46292605  0.66184605  0.05167967  1
  C  C546  1  0.45704341  0.67232348  0.09158597  1
  C  C547  1  0.43104942  0.69973030  0.09966997  1
  H  H548  1  0.42374988  0.71341559  0.12918974  1
  C  C549  1  0.44512536  0.68167975  0.02216096  1
  Zn  Zn550  1  0.40860277  0.59752744  0.05738398  1
  N  N551  1  0.41011842  0.71490589  0.07140023  1
  C  C552  1  0.41870681  0.70831513  0.03273662  1
  H  H553  1  0.46806947  0.65536261  0.11757049  1
  N  N554  1  0.46405628  0.59665725  0.04161425  1
  N  N555  1  0.28567327  0.51795861  0.18920948  1
  C  C556  1  0.27239284  0.71750883  0.14251381  1
  C  C557  1  0.30603072  0.71537043  0.12065533  1
  H  H558  1  0.32748058  0.69263808  0.12737285  1
  C  C559  1  0.48678080  0.62731537  0.03898331  1
  C  C560  1  0.26243673  0.56768846  0.23687000  1
  H  H561  1  0.40292796  0.72365625  0.00910234  1
  N  N562  1  0.37138183  0.62832356  0.02583178  1
  H  H563  1  0.48609340  0.73166827  0.04599164  1
  C  C564  1  0.34701931  0.65088147  0.04290197  1
  H  H565  1  0.34928080  0.65081369  0.07689608  1
  C  C566  1  0.47996584  0.57519118  0.01134691  1
  C  C567  1  0.46341449  0.53658982  0.01642849  1
  H  H568  1  0.46372959  0.53472532  0.08063257  1
  C  C569  1  0.49834908  0.74310073  0.23655826  1
  H  H570  1  0.30058137  0.68899401  0.03341684  1
  C  C571  1  0.32086956  0.67107410  0.01964753  1
  N  N572  1  0.31787125  0.74610787  0.10293780  1
  C  C573  1  0.49944898  0.74993911  0.02315419  1
  C  C574  1  0.22394775  0.75261293  0.24305023  1
  N  N575  1  0.02011929  0.98625667  0.05388953  1
  C  C576  1  0.22275404  0.75141576  0.18090534  1
  C  C577  1  0.12829646  0.98486998  0.06651633  1
  H  H578  1  0.05378965  0.98763585  0.12357177  1
  C  C579  1  0.08220509  0.98562503  0.11273121  1
  C  C580  1  0.17018897  0.76107299  0.20660811  1
  N  N581  1  0.18650261  0.76172759  0.17055932  1
  Zn  Zn582  1  0.18286460  0.97013783  0.17617256  1
  C  C583  1  0.12739488  0.76744250  0.21368015  1
  N  N584  1  0.18472243  0.77800315  0.07069323  1
  H  H585  1  0.19082273  0.82643863  0.04141329  1
  C  C586  1  0.19239027  0.79593839  0.03746687  1
  Zn  Zn587  1  0.17592186  0.80256455  0.12453898  1
  N  N588  1  0.20989429  0.84363861  0.14068220  1
  C  C589  1  0.23093645  0.84141909  0.17277131  1
  H  H590  1  0.22774703  0.81549950  0.18962703  1
  C  C591  1  0.21207172  0.87298068  0.11751282  1
  H  H592  1  0.19220258  0.86760549  0.09011415  1
  N  N593  1  0.23575055  0.95860594  0.20220010  1
  N  N594  1  0.05125360  0.77566544  0.23840820  1
  C  C595  1  0.23096421  0.90538222  0.12868608  1
  C  C596  1  0.24772233  0.97136510  0.23751844  1
  C  C597  1  0.08847048  0.98495735  0.07113413  1
  N  N598  1  0.14686627  0.97795559  0.13645817  1
  H  H599  1  0.18698380  0.97603669  0.09579229  1
  C  C600  1  0.15519287  0.97978553  0.09733990  1
  C  C601  1  0.10994156  0.98016005  0.14358611  1
  H  H602  1  0.10502782  0.97447632  0.17693296  1
  H  H603  1  0.24372609  0.80410714  0.11670298  1
  N  N604  1  0.18459002  0.75489362  0.24466230  1
  C  C605  1  0.11566839  0.79917272  0.23479213  1
  H  H606  1  0.22880612  0.93174055  0.11232765  1
  C  C607  1  0.20701774  0.77697867  0.00387382  1
  H  H608  1  0.14066796  0.98710327  0.03610100  1
  C  C609  1  0.05601964  0.99228752  0.04094229  1
  H  H610  1  0.13571974  0.81943196  0.24573693  1
  C  C611  1  0.07686437  0.80185952  0.24474048  1
  H  H612  1  0.48058478  0.75556441  0.21376377  1
  C  C613  1  0.25149700  0.87356081  0.18482818  1
  C  C614  1  0.25036868  0.90629587  0.16517120  1
  H  H615  1  0.26557671  0.87058164  0.21504558  1
  H  H616  1  0.47782717  0.95390809  0.07343256  1
  C  C617  1  0.25073622  0.75001088  0.14226832  1
  C  C618  1  0.37459725  0.97894677  0.19487806  1
  N  N619  1  0.38957205  0.89045182  0.20947078  1
  H  H620  1  0.34661625  0.75020550  0.22796808  1
  H  H621  1  0.43045739  0.83177985  0.15293136  1
  N  N622  1  0.45901386  0.90139420  0.22863802  1
  Zn  Zn623  1  0.49639697  0.89158604  0.03098099  1
  C  C624  1  0.49603026  0.96909859  0.05031109  1
  C  C625  1  0.36220768  0.76498751  0.20367260  1
  C  C626  1  0.35820963  0.80949896  0.00637530  1
  C  C627  1  0.36038496  0.83223601  0.11135296  1
  H  H628  1  0.30969292  0.79758262  0.08022676  1
  H  H629  1  0.44854643  0.78654866  0.20723589  1
  Zn  Zn630  1  0.37044537  0.75187417  0.08270666  1
  C  C631  1  0.40934700  0.81324636  0.16584599  1
  C  C632  1  0.37260185  0.81266117  0.15110926  1
  C  C633  1  0.35028519  0.97511695  0.22888253  1
  C  C634  1  0.42049809  0.78665295  0.19439886  1
  H  H635  1  0.49917310  0.89191102  0.18163025  1
  H  H636  1  0.43476280  0.97979152  0.17461710  1
  C  C637  1  0.49643186  0.88679680  0.11861413  1
  C  C638  1  0.30709326  0.91218905  0.07705111  1
  N  N639  1  0.27759452  0.97664985  0.04501137  1
  H  H640  1  0.33309384  0.97135702  0.02366951  1
  C  C641  1  0.31223344  0.94528264  0.09827275  1
  N  N642  1  0.33934833  0.86003148  0.04799683  1
  C  C643  1  0.34824678  0.78802277  0.17168768  1
  H  H644  1  0.40766131  0.92495407  0.01551703  1
  H  H645  1  0.42567163  0.89421285  0.05852515  1
  N  N646  1  0.34333581  0.86551120  0.11941814  1
  C  C647  1  0.47991562  0.89098771  0.15562504  1
  N  N648  1  0.43206995  0.97977295  0.23276656  1
  C  C649  1  0.33096704  0.87708579  0.08271101  1
  H  H650  1  0.28132633  0.88625894  0.02681029  1
  C  C651  1  0.26787682  0.94440572  0.02992858  1
  H  H652  1  0.45878879  0.79467348  0.02734168  1
  C  C653  1  0.29848231  0.97690644  0.07866857  1
  H  H654  1  0.36105805  0.97680106  0.16600529  1
  C  C655  1  0.38635904  0.87762104  0.24806167  1
  N  N656  1  0.30518760  0.94153168  0.19210156  1
  C  C657  1  0.28221122  0.91154610  0.04380508  1
  N  N658  1  0.37178182  0.81118331  0.08040672  1
  C  C659  1  0.44128331  0.89710041  0.16198091  1
  H  H660  1  0.47211946  0.81936964  0.24856807  1
  C  C661  1  0.26710360  0.94134346  0.18724451  1
  C  C662  1  0.29604356  0.77422892  0.09697571  1
  H  H663  1  0.39006629  0.89322949  0.12809068  1
  C  C664  1  0.48397414  0.78427879  0.01270913  1
  Zn  Zn665  1  0.48532495  0.96031902  0.23850980  1
  C  C666  1  0.25957824  0.77888759  0.11651493  1
  H  H667  1  0.32545391  0.94430131  0.12793514  1
  C  C668  1  0.42585126  0.89854496  0.20534647  1
  C  C669  1  0.30989832  0.96407768  0.22453647  1
  H  H670  1  0.31674603  0.78794788  0.16418547  1
  C  C671  1  0.41325404  0.98363170  0.19820829  1
  N  N672  1  0.47600049  0.88966689  0.08578264  1
  C  C673  1  0.35917638  0.82950174  0.04757164  1
  C  C674  1  0.43876057  0.89305277  0.08934613  1
  C  C675  1  0.42082202  0.89442458  0.12650445  1
  N  N676  1  0.39765405  0.76508304  0.21588841  1
  Zn  Zn677  1  0.34180803  0.89793787  0.17380855  1
  H  H678  1  0.29809125  0.80116561  0.01266031  1
  H  H679  1  0.40361769  0.99837526  0.01547556  1
  H  H680  1  0.25397070  0.94926964  0.00128983  1
  N  N681  1  0.09364924  0.62155069  0.29316036  1
  C  C682  1  0.08201404  0.58703771  0.29834895  1
  C  C683  1  0.04027496  0.60075132  0.35436112  1
  C  C684  1  0.07538613  0.64596803  0.31416449  1
  C  C685  1  0.04859034  0.63730773  0.34445121  1
  C  C686  1  0.05863565  0.57449426  0.32932484  1
  Zn  Zn687  1  0.16359922  0.70907646  0.27869444  1
  N  N688  1  0.12921483  0.71203099  0.32301040  1
  C  C689  1  0.13690937  0.69375216  0.35605832  1
  N  N690  1  0.06120141  0.69910455  0.45167409  1
  C  C691  1  0.11610946  0.69832245  0.39159863  1
  C  C692  1  0.08423912  0.72131329  0.39039887  1
  C  C693  1  0.07036444  0.73149703  0.43227423  1
  H  H694  1  0.16419795  0.67735193  0.35214282  1
  H  H695  1  0.12237433  0.68493525  0.41912196  1
  H  H696  1  0.08680324  0.67188934  0.30386175  1
  H  H697  1  0.09877121  0.57221162  0.27606766  1
  H  H698  1  0.05687256  0.54489145  0.33214354  1
  H  H699  1  0.21521010  0.73190673  0.37673698  1
  H  H700  1  0.16276312  0.63245181  0.30546635  1
  C  C701  1  0.09837159  0.73276361  0.32149222  1
  C  C702  1  0.01247794  0.58855148  0.38638122  1
  C  C703  1  0.18917448  0.63404379  0.28664664  1
  H  H704  1  0.03387425  0.65962905  0.35846695  1
  Zn  Zn705  1  0.01644435  0.66733850  0.42942240  1
  N  N706  1  0.19789356  0.66697407  0.27356531  1
  H  H707  1  0.12801299  0.73632936  0.48452718  1
  C  C708  1  0.06358182  0.71382204  0.49051653  1
  N  N709  1  0.10147479  0.58621194  0.45889041  1
  C  C710  1  0.07401373  0.73918074  0.35397565  1
  H  H711  1  0.20244492  0.57470357  0.28447678  1
  C  C712  1  0.21096488  0.60251394  0.27710233  1
  C  C713  1  0.05597920  0.53932679  0.46993334  1
  C  C714  1  0.07324186  0.56520723  0.44532694  1
  H  H715  1  0.06309580  0.57250137  0.41619978  1
  N  N716  1  0.00904346  0.55261965  0.39020077  1
  H  H717  1  0.02441241  0.71814842  0.29368776  1
  H  H718  1  0.03334818  0.52205226  0.45739351  1
  C  C719  1  0.20306007  0.74770738  0.40114089  1
  H  H720  1  0.02379282  0.50297963  0.25153031  1
  H  H721  1  0.20080796  0.52700582  0.49291055  1
  H  H722  1  0.11819206  0.50666621  0.31105176  1
  H  H723  1  0.01046104  0.74065528  0.44788659  1
  H  H724  1  0.00843057  0.56216995  0.29291686  1
  C  C725  1  0.24281726  0.60526230  0.25267237  1
  H  H726  1  0.09150719  0.74544142  0.29179026  1
  C  C727  1  0.11409622  0.58013244  0.49514658  1
  C  C728  1  0.23200848  0.67094431  0.25670482  1
  H  H729  1  0.36061752  0.53301624  0.34347712  1
  H  H730  1  0.38487992  0.57422242  0.40090997  1
  H  H731  1  0.28379339  0.64802238  0.45427343  1
  N  N732  1  0.28050728  0.71279912  0.44687786  1
  C  C733  1  0.45538395  0.57451294  0.43360525  1
  C  C734  1  0.31406517  0.64424818  0.45930253  1
  H  H735  1  0.44892323  0.68738823  0.38824782  1
  C  C736  1  0.33692513  0.67482833  0.46442118  1
  C  C737  1  0.31481043  0.71139036  0.46352960  1
  N  N738  1  0.46615761  0.60688101  0.41164949  1
  C  C739  1  0.45378333  0.51160941  0.39386389  1
  C  C740  1  0.40214771  0.55127387  0.38869277  1
  C  C741  1  0.43782410  0.54456251  0.40699566  1
  C  C742  1  0.33005006  0.60972325  0.45508245  1
  N  N743  1  0.45711979  0.56569037  0.47044360  1
  H  H744  1  0.31755998  0.58346455  0.44329256  1
  C  C745  1  0.37635430  0.66800248  0.46907018  1
  C  C746  1  0.38988959  0.63210892  0.46592705  1
  H  H747  1  0.46985912  0.71101877  0.31677171  1
  N  N748  1  0.36686107  0.60401524  0.46224639  1
  C  C749  1  0.47395112  0.59296991  0.48990018  1
  C  C750  1  0.47887649  0.69340237  0.39608746  1
  C  C751  1  0.48222627  0.63287522  0.43709469  1
  H  H752  1  0.37307682  0.71162463  0.32593380  1
  C  C753  1  0.49215765  0.71640961  0.29660477  1
  Zn  Zn754  1  0.48547572  0.60533169  0.35553936  1
  C  C755  1  0.38804921  0.52978742  0.35873143  1
  N  N756  1  0.33048436  0.73642590  0.48914316  1
  N  N757  1  0.47587768  0.73393046  0.26545029  1
  H  H758  1  0.35609970  0.72603307  0.40153371  1
  H  H759  1  0.39757190  0.69012464  0.47230539  1
  C  C760  1  0.38702660  0.73274539  0.34612533  1
  H  H761  1  0.41830800  0.62284314  0.47064297  1
  C  C762  1  0.49638180  0.72413055  0.37931390  1
  C  C763  1  0.49962455  0.66768725  0.41866489  1
  N  N764  1  0.48415300  0.62588486  0.47512189  1
  H  H765  1  0.48012163  0.50257471  0.40784525  1
  C  C766  1  0.26701116  0.74667801  0.44286422  1
  C  C767  1  0.37712775  0.74130477  0.38588152  1
  Zn  Zn768  1  0.41814895  0.73962183  0.26643426  1
  H  H769  1  0.30508696  0.74351612  0.26275961  1
  N  N770  1  0.25464126  0.54618814  0.49951738  1
  H  H771  1  0.48475325  0.74471575  0.35787515  1
  H  H772  1  0.14543829  0.75946059  0.37476206  1
  C  C773  1  0.22481622  0.75449383  0.43479594  1
  C  C774  1  0.16635218  0.76329188  0.39782339  1
  N  N775  1  0.00584053  0.97585061  0.49434646  1
  C  C776  1  0.00913763  0.81885075  0.33798507  1
  H  H777  1  0.04821963  0.75366082  0.35005465  1
  C  C778  1  0.00597447  0.86675593  0.47688950  1
  H  H779  1  0.19847713  0.77237890  0.31331822  1
  H  H780  1  0.01880539  0.82234493  0.43693702  1
  C  C781  1  0.01665006  0.85218788  0.31865135  1
  H  H782  1  0.13026094  0.96380384  0.31431552  1
  C  C783  1  0.22805785  0.77106753  0.31363010  1
  N  N784  1  0.06430968  0.76752098  0.44316040  1
  C  C785  1  0.20850422  0.77746588  0.46415969  1
  C  C786  1  0.17081560  0.78826253  0.45837579  1
  H  H787  1  0.15446609  0.80332101  0.47979430  1
  H  H788  1  0.10504768  0.86720484  0.36144417  1
  N  N789  1  0.15082252  0.78449979  0.42457221  1
  Zn  Zn790  1  0.09980478  0.80838337  0.41760225  1
  C  C791  1  0.03431672  0.80995068  0.36923280  1
  N  N792  1  0.06766178  0.82755522  0.37575107  1
  C  C793  1  0.05022236  0.87073729  0.32593277  1
  C  C794  1  0.07621207  0.85662469  0.35448827  1
  C  C795  1  0.18688734  0.96320687  0.28292007  1
  H  H796  1  0.02926354  0.78837262  0.39205184  1
  H  H797  1  0.05644847  0.89667512  0.31063023  1
  H  H798  1  0.19118923  0.93434769  0.27575731  1
  H  H799  1  0.23517857  0.79951995  0.37395462  1
  C  C800  1  0.05203251  0.76974569  0.48363562  1
  H  H801  1  0.22084908  0.78211575  0.49394259  1
  C  C802  1  0.02031130  0.83147352  0.46776497  1
  C  C803  1  0.03459859  0.80611497  0.49586222  1
  C  C804  1  0.15457341  0.97896302  0.30204381  1
  C  C805  1  0.21643048  0.98422971  0.26673851  1
  C  C806  1  0.24793998  0.75777674  0.28132655  1
  C  C807  1  0.24834586  0.78701624  0.34688217  1
  H  H808  1  0.06198180  0.82508190  0.26085589  1
  N  N809  1  0.31824421  0.93775371  0.36065317  1
  C  C810  1  0.48144891  0.86598465  0.28895261  1
  C  C811  1  0.28812919  0.75960434  0.28577913  1
  H  H812  1  0.36130772  0.91718850  0.32323880  1
  H  H813  1  0.46387481  0.96876870  0.44090941  1
  H  H814  1  0.33358249  0.98906214  0.39489745  1
  N  N815  1  0.26870910  0.86779791  0.28657793  1
  Zn  Zn816  1  0.29474438  0.97429715  0.31820155  1
  H  H817  1  0.26503799  0.92014430  0.29718818  1
  H  H818  1  0.26271187  0.81771305  0.26439640  1
  C  C819  1  0.34438783  0.87283744  0.25945799  1
  C  C820  1  0.28411788  0.84051580  0.26751440  1
  C  C821  1  0.39232964  0.77282166  0.40379726  1
  N  N822  1  0.35776494  0.82103424  0.42604289  1
  H  H823  1  0.39995391  0.95395801  0.35889285  1
  C  C824  1  0.32173030  0.84091898  0.25823562  1
  C  C825  1  0.48746390  0.96159957  0.49926218  1
  N  N826  1  0.28370690  0.97633365  0.25146926  1
  H  H827  1  0.35394259  0.98639884  0.29316277  1
  C  C828  1  0.41904222  0.79127338  0.37984161  1
  C  C829  1  0.32450625  0.90377739  0.27117206  1
  C  C830  1  0.49493595  0.97236375  0.34040494  1
  C  C831  1  0.42754525  0.78167438  0.33990357  1
  C  C832  1  0.30316485  0.93013454  0.39630452  1
  C  C833  1  0.42985692  0.96445456  0.35866530  1
  N  N834  1  0.38699280  0.85584963  0.47818048  1
  C  C835  1  0.36593346  0.85144807  0.44546317  1
  C  C836  1  0.44881021  0.88174093  0.26146476  1
  H  H837  1  0.44743931  0.79716607  0.32047838  1
  H  H838  1  0.27925568  0.94960284  0.39678029  1
  H  H839  1  0.46083582  0.93019526  0.31517919  1
  N  N840  1  0.28696695  0.77962241  0.44798697  1
  C  C841  1  0.44869165  0.83424052  0.49515999  1
  H  H842  1  0.33731910  0.93095516  0.27281447  1
  C  C843  1  0.48570589  0.82980402  0.27587221  1
  H  H844  1  0.49505173  0.90529198  0.33600976  1
  H  H845  1  0.42587280  0.98639664  0.29064440  1
  C  C846  1  0.42326586  0.94212615  0.48105768  1
  C  C847  1  0.49853655  0.87739204  0.47676058  1
  C  C848  1  0.46527158  0.85895038  0.46745592  1
  N  N849  1  0.41445119  0.87274120  0.27419337  1
  C  C850  1  0.34695438  0.91523368  0.35323509  1
  C  C851  1  0.31656942  0.90723605  0.42714205  1
  C  C852  1  0.34758943  0.88423862  0.41925073  1
  C  C853  1  0.38215614  0.79495824  0.44239873  1
  H  H854  1  0.38495180  0.87214434  0.37131822  1
  H  H855  1  0.43441526  0.81476176  0.39278231  1
  C  C856  1  0.28646756  0.90048516  0.28434764  1
  N  N857  1  0.43140252  0.99145604  0.38444830  1
  C  C858  1  0.30533775  0.77489027  0.31953099  1
  H  H859  1  0.44798969  0.86617062  0.44061471  1
  H  H860  1  0.33532485  0.77745295  0.32417556  1
  C  C861  1  0.36189325  0.88971416  0.38106928  1
  H  H862  1  0.30341541  0.90358722  0.45714496  1
  H  H863  1  0.39933832  0.93762770  0.46052100  1
  N  N864  1  0.40351014  0.78726197  0.47713814  1
  C  C865  1  0.40741918  0.82340915  0.48681179  1
  N  N866  1  0.28520883  0.78757065  0.35008315  1
  C  C867  1  0.31068558  0.76726491  0.47968657  1
  C  C868  1  0.45904408  0.95893750  0.47099788  1
  C  C869  1  0.36954576  0.98536778  0.26497969  1
  C  C870  1  0.46070287  0.95346681  0.33477372  1
  C  C871  1  0.40917783  0.98718164  0.26317230  1
  Zn  Zn872  1  0.30633458  0.80773607  0.39975464  1
  N  N873  1  0.41125087  0.75245046  0.32488185  1
  H  H874  1  0.33724790  0.81450174  0.25158755  1
  N  N875  1  0.22594298  0.56691068  0.64510476  1
  C  C876  1  0.22131502  0.59037733  0.61557027  1
  N  N877  1  0.21229328  0.62797468  0.61816572  1
  C  C878  1  0.20333046  0.64094998  0.65554042  1
  C  C879  1  0.20730209  0.58597515  0.67599550  1
  N  N880  1  0.20032219  0.62186857  0.68915517  1
  C  C881  1  0.18913342  0.55999697  0.70616935  1
  C  C882  1  0.23636810  0.57426700  0.57641869  1
  C  C883  1  0.02763156  0.65720417  0.59243248  1
  N  N884  1  0.06351783  0.66186131  0.65200154  1
  Zn  Zn885  1  0.21865930  0.66223818  0.56804603  1
  N  N886  1  0.16909502  0.67368519  0.54665284  1
  C  C887  1  0.05185332  0.68198804  0.62071247  1
  C  C888  1  0.18158943  0.70448916  0.63527995  1
  H  H889  1  0.15895441  0.69109774  0.61641165  1
  C  C890  1  0.20325595  0.68288548  0.66143413  1
  C  C891  1  0.08499237  0.68133325  0.67820342  1
  C  C892  1  0.19491042  0.52226928  0.69892602  1
  C  C893  1  0.13750456  0.65598320  0.55558726  1
  H  H894  1  0.14333692  0.63335918  0.57568376  1
  C  C895  1  0.10136216  0.66727014  0.54221280  1
  H  H896  1  0.07643551  0.65003030  0.55103844  1
  N  N897  1  0.05731776  0.71711852  0.61055174  1
  C  C898  1  0.20984955  0.55649098  0.55100852  1
  H  H899  1  0.18201961  0.55377339  0.56249199  1
  C  C900  1  0.02363753  0.62053030  0.60519175  1
  C  C901  1  0.10016318  0.66352433  0.71511851  1
  H  H902  1  0.06737910  0.55161913  0.68103325  1
  H  H903  1  0.03425946  0.61374429  0.63430311  1
  H  H904  1  0.05963821  0.61862006  0.71634645  1
  N  N905  1  0.09473109  0.71520049  0.67126054  1
  C  C906  1  0.08115076  0.63246534  0.73271264  1
  C  C907  1  0.08063985  0.73102949  0.63864740  1
  H  H908  1  0.09875403  0.55891287  0.55557971  1
  C  C909  1  0.16521670  0.70186880  0.52224629  1
  N  N910  1  0.02284478  0.54599968  0.71263028  1
  C  C911  1  0.09413029  0.55906596  0.52314053  1
  C  C912  1  0.05502604  0.53159340  0.70034033  1
  C  C913  1  0.00305565  0.52515106  0.73809133  1
  C  C914  1  0.01177286  0.66331576  0.55427017  1
  H  H915  1  0.21431446  0.51601335  0.67465812  1
  H  H916  1  0.14550344  0.70178047  0.72421040  1
  C  C917  1  0.03982160  0.51148652  0.53848467  1
  C  C918  1  0.23044541  0.70156442  0.68447346  1
  H  H919  1  0.01618830  0.68856124  0.53507870  1
  C  C920  1  0.21999623  0.54190471  0.51489149  1
  C  C921  1  0.13091108  0.67879345  0.73606422  1
  Zn  Zn922  1  0.02389742  0.74451703  0.56830377  1
  C  C923  1  0.18959703  0.74187899  0.63299035  1
  C  C924  1  0.06303257  0.53744783  0.51193877  1
  Zn  Zn925  1  0.22670887  0.63992023  0.74462430  1
  C  C926  1  0.16099970  0.56885892  0.73493914  1
  H  H927  1  0.15283956  0.59769860  0.73922374  1
  H  H928  1  0.13912489  0.59549465  0.50107904  1
  C  C929  1  0.00861975  0.59124070  0.58075988  1
  N  N930  1  0.00225434  0.51553660  0.54404368  1
  C  C931  1  0.23656731  0.73940964  0.67890240  1
  H  H932  1  0.01030224  0.56094897  0.58579519  1
  H  H933  1  0.24805872  0.68754648  0.70756435  1
  C  C934  1  0.09636228  0.69632574  0.51560548  1
  H  H935  1  0.19346830  0.71354779  0.51995832  1
  N  N936  1  0.05415139  0.74506540  0.51258865  1
  C  C937  1  0.12964274  0.71319568  0.50523445  1
  H  H938  1  0.25243326  0.69853720  0.63032831  1
  H  H939  1  0.29111697  0.72913026  0.53789831  1
  H  H940  1  0.34063299  0.50509127  0.68928461  1
  C  C941  1  0.28155885  0.55794779  0.52399084  1
  C  C942  1  0.27328063  0.57319007  0.56122946  1
  C  C943  1  0.49479753  0.69716172  0.72628028  1
  H  H944  1  0.29405771  0.58549245  0.58121644  1
  Zn  Zn945  1  0.27784096  0.53959908  0.65068972  1
  N  N946  1  0.27010779  0.67908691  0.57734860  1
  H  H947  1  0.37767401  0.54943057  0.65662463  1
  H  H948  1  0.39513738  0.53323277  0.58320563  1
  H  H949  1  0.35694997  0.62650961  0.54102846  1
  N  N950  1  0.37731859  0.57952586  0.56117400  1
  C  C951  1  0.38075657  0.55768422  0.59203363  1
  C  C952  1  0.35804067  0.60967075  0.56840424  1
  C  C953  1  0.34556415  0.59750086  0.63786365  1
  C  C954  1  0.33920766  0.61909943  0.60326176  1
  C  C955  1  0.32635512  0.60262559  0.67732765  1
  C  C956  1  0.36994248  0.56720477  0.63069215  1
  N  N957  1  0.33078013  0.63666269  0.69620795  1
  N  N958  1  0.40843791  0.63676209  0.69447879  1
  H  H959  1  0.32234267  0.64530957  0.60468964  1
  C  C960  1  0.43304167  0.62134201  0.66893263  1
  C  C961  1  0.46037136  0.59614689  0.68105088  1
  N  N962  1  0.30982390  0.57122205  0.69220671  1
  C  C963  1  0.40909715  0.62104393  0.73098681  1
  C  C964  1  0.46088650  0.57737271  0.71840346  1
  C  C965  1  0.29390702  0.58509298  0.72688100  1
  H  H966  1  0.43129732  0.63669325  0.63974814  1
  H  H967  1  0.28974687  0.65672951  0.52561691  1
  H  H968  1  0.35788780  0.67647490  0.53834431  1
  Zn  Zn969  1  0.37153920  0.67231715  0.68189299  1
  C  C970  1  0.29894696  0.67245028  0.55245442  1
  C  C971  1  0.33497694  0.68612016  0.55800074  1
  C  C972  1  0.27786107  0.69737825  0.61055222  1
  C  C973  1  0.34372485  0.70438595  0.59425353  1
  N  N974  1  0.38896742  0.71605833  0.64335395  1
  C  C975  1  0.38490722  0.71773444  0.60302437  1
  C  C976  1  0.31374316  0.71127455  0.62053845  1
  C  C977  1  0.48231500  0.54383259  0.73264651  1
  C  C978  1  0.31158511  0.63785067  0.73250867  1
  C  C979  1  0.42402238  0.72989268  0.64978436  1
  N  N980  1  0.40578695  0.72479266  0.56868664  1
  C  C981  1  0.43237831  0.59242102  0.74462108  1
  H  H982  1  0.43678131  0.54926133  0.54614884  1
  C  C983  1  0.44100932  0.72492271  0.69171849  1
  C  C984  1  0.46531206  0.56002860  0.55698347  1
  C  C985  1  0.42582576  0.73230935  0.72974203  1
  H  H986  1  0.48384556  0.59138149  0.65982446  1
  C  C987  1  0.43959149  0.73391391  0.58260307  1
  N  N988  1  0.28226419  0.61690322  0.74509042  1
  H  H989  1  0.37038761  0.69420031  0.74783988  1
  C  C990  1  0.47257422  0.72766805  0.51470434  1
  C  C991  1  0.47501908  0.70441877  0.69077784  1
  Zn  Zn992  1  0.38594800  0.74541378  0.51289468  1
  H  H993  1  0.38428151  0.63231203  0.74891821  1
  H  H994  1  0.48412236  0.69496553  0.66136269  1
  C  C995  1  0.48516565  0.58657562  0.53306975  1
  C  C996  1  0.47502665  0.73664325  0.55420110  1
  H  H997  1  0.31976361  0.73054245  0.64511692  1
  N  N998  1  0.49914529  0.52217346  0.70228898  1
  N  N999  1  0.44836306  0.73928770  0.62108271  1
  H  H1000  1  0.30845573  0.55838538  0.50966626  1
  C  C1001  1  0.47945696  0.54987790  0.59469622  1
  H  H1002  1  0.40060205  0.74903824  0.73272389  1
  H  H1003  1  0.46579936  0.52829481  0.61400351  1
  H  H1004  1  0.44523676  0.71854454  0.50090750  1
  H  H1005  1  0.25060292  0.74971887  0.60299894  1
  H  H1006  1  0.16351383  0.99157374  0.74034786  1
  H  H1007  1  0.01705586  0.87209367  0.57370321  1
  H  H1008  1  0.12373162  0.75910758  0.70908809  1
  H  H1009  1  0.20120072  0.99762503  0.61218310  1
  H  H1010  1  0.07815018  0.96570474  0.51022626  1
  C  C1011  1  0.03795937  0.98639361  0.55336894  1
  N  N1012  1  0.21886776  0.75752908  0.65043652  1
  H  H1013  1  0.04570243  0.81167640  0.56122234  1
  H  H1014  1  0.11634174  0.96335920  0.68067662  1
  H  H1015  1  0.17607298  0.87445166  0.67131665  1
  C  C1016  1  0.20318174  0.91085833  0.71690358  1
  H  H1017  1  0.11711668  0.93095400  0.55715067  1
  H  H1018  1  0.17546051  0.76386526  0.61760687  1
  H  H1019  1  0.09851476  0.77507609  0.56961520  1
  C  C1020  1  0.08931820  0.77365158  0.63405884  1
  C  C1021  1  0.09851236  0.79029789  0.59776472  1
  C  C1022  1  0.08724530  0.79499621  0.66836879  1
  H  H1023  1  0.07901773  0.78134393  0.69670326  1
  C  C1024  1  0.09399229  0.83320113  0.66718612  1
  C  C1025  1  0.10580192  0.82905930  0.60022498  1
  H  H1026  1  0.11318566  0.84808968  0.57625769  1
  H  H1027  1  0.09399600  0.84913027  0.69594692  1
  C  C1028  1  0.17714146  0.89993517  0.68758933  1
  C  C1029  1  0.09199989  0.94649198  0.56688125  1
  C  C1030  1  0.14325190  0.95207611  0.69260978  1
  N  N1031  1  0.10128531  0.84998036  0.63183530  1
  Zn  Zn1032  1  0.10811353  0.90324016  0.63605197  1
  N  N1033  1  0.08012009  0.94244055  0.60438242  1
  N  N1034  1  0.14736310  0.91980288  0.67582338  1
  C  C1035  1  0.05381108  0.96427519  0.61895336  1
  C  C1036  1  0.23550998  0.83634776  0.72563319  1
  H  H1037  1  0.04745339  0.95752138  0.65038855  1
  C  C1038  1  0.07002854  0.96697785  0.54052282  1
  C  C1039  1  0.16703536  0.96566176  0.72365503  1
  C  C1040  1  0.19797524  0.94540562  0.73587245  1
  C  C1041  1  0.20162619  0.81116233  0.73403026  1
  C  C1042  1  0.03077187  0.82325472  0.53433307  1
  C  C1043  1  0.01518488  0.85712433  0.54338105  1
  C  C1044  1  0.23057927  0.99434009  0.61928718  1
  Zn  Zn1045  1  0.22967042  0.81245307  0.63711085  1
  C  C1046  1  0.17594462  0.79403853  0.70860169  1
  H  H1047  1  0.17719014  0.79638637  0.67586148  1
  H  H1048  1  0.22255752  0.96462333  0.67839702  1
  C  C1049  1  0.03306293  0.98853877  0.59503305  1
  H  H1050  1  0.22612503  0.89341639  0.73005698  1
  C  C1051  1  0.24196119  0.97346364  0.65374506  1
  N  N1052  1  0.24806719  0.84283547  0.68516756  1
  C  C1053  1  0.14611813  0.77382035  0.72500428  1
  N  N1054  1  0.00140882  0.87861714  0.51379127  1
  N  N1055  1  0.33968963  0.89062320  0.57186683  1
  C  C1056  1  0.37442409  0.94360719  0.71365261  1
  H  H1057  1  0.25848293  0.75706076  0.69176942  1
  C  C1058  1  0.26524172  0.76767800  0.58083120  1
  H  H1059  1  0.30646546  0.93659598  0.56193318  1
  C  C1060  1  0.47726482  0.95151443  0.53877145  1
  C  C1061  1  0.41186921  0.95477665  0.71217544  1
  C  C1062  1  0.34575248  0.86211556  0.59554886  1
  H  H1063  1  0.26235849  0.92128659  0.62107467  1
  C  C1064  1  0.28781825  0.90517188  0.61618114  1
  C  C1065  1  0.29713214  0.87771532  0.64433822  1
  H  H1066  1  0.36305752  0.91535571  0.71637488  1
  C  C1067  1  0.42078679  0.99166670  0.70484699  1
  C  C1068  1  0.28645620  0.75840529  0.54606933  1
  Zn  Zn1069  1  0.37078439  0.89816259  0.52522776  1
  C  C1070  1  0.27606128  0.86881416  0.68365506  1
  C  C1071  1  0.32679456  0.85481942  0.63142713  1
  C  C1072  1  0.31003792  0.91241929  0.58254030  1
  N  N1073  1  0.41727846  0.92749958  0.51667817  1
  N  N1074  1  0.34677035  0.96763255  0.71095384  1
  H  H1075  1  0.43570032  0.93674013  0.71574181  1
  C  C1076  1  0.29418930  0.99382901  0.59721663  1
  H  H1077  1  0.33075528  0.96669004  0.64183851  1
  H  H1078  1  0.31624384  0.99576872  0.57415040  1
  H  H1079  1  0.27353938  0.85590838  0.58334096  1
  H  H1080  1  0.46112507  0.80303184  0.54943825  1
  Zn  Zn1081  1  0.29241011  0.94861897  0.71622537  1
  C  C1082  1  0.29773614  0.78586987  0.51929996  1
  C  C1083  1  0.44128118  0.93534556  0.54527201  1
  C  C1084  1  0.29674772  0.82259347  0.53295049  1
  H  H1085  1  0.36802434  0.84322354  0.58419294  1
  H  H1086  1  0.32999661  0.82766288  0.64755880  1
  N  N1087  1  0.27689588  0.96950335  0.66176711  1
  H  H1088  1  0.42854000  0.92878350  0.57511894  1
  C  C1089  1  0.27703452  0.82892907  0.56902744  1
  H  H1090  1  0.49705037  0.95636567  0.56288988  1
  C  C1091  1  0.47072334  0.82589193  0.52873814  1
  H  H1092  1  0.30894229  0.84536684  0.51465686  1
  N  N1093  1  0.29290318  0.88751515  0.71284260  1
  N  N1094  1  0.25974847  0.80325802  0.58970753  1
  C  C1095  1  0.30292273  0.97711236  0.63384918  1
  C  C1096  1  0.27950201  0.86940249  0.74702983  1
  N  N1097  1  0.12606763  0.63282132  0.78701646  1
  N  N1098  1  0.22540304  0.66734884  0.79397938  1
  H  H1099  1  0.12571879  0.54343885  0.78412504  1
  N  N1100  1  0.22478715  0.72327346  0.93224468  1
  C  C1101  1  0.14266659  0.66322608  0.77300576  1
  H  H1102  1  0.16436140  0.67445607  0.79156666  1
  H  H1103  1  0.08670500  0.59497663  0.78526516  1
  C  C1104  1  0.21702416  0.64861404  0.82747053  1
  C  C1105  1  0.23317958  0.71909135  0.96989332  1
  C  C1106  1  0.24200084  0.69816653  0.86877454  1
  C  C1107  1  0.09572867  0.61862154  0.76873205  1
  C  C1108  1  0.14574346  0.54112782  0.75818541  1
  C  C1109  1  0.22421771  0.66450256  0.86568958  1
  H  H1110  1  0.20772048  0.62054605  0.81954141  1
  H  H1111  1  0.22133505  0.64922711  0.89504095  1
  N  N1112  1  0.15280624  0.50441552  0.75297719  1
  C  C1113  1  0.23434488  0.70254049  0.79738634  1
  C  C1114  1  0.24607212  0.71947262  0.83328519  1
  H  H1115  1  0.24104128  0.71440735  0.76907966  1
  H  H1116  1  0.22847265  0.54935204  0.75680804  1
  H  H1117  1  0.26118901  0.74756248  0.83411413  1
  C  C1118  1  0.25465248  0.53342497  0.76169203  1
  C  C1119  1  0.25308684  0.70946410  0.91283847  1
  N  N1120  1  0.26295909  0.70091607  0.98406527  1
  C  C1121  1  0.45168776  0.51374409  0.98431640  1
  C  C1122  1  0.30964150  0.65042048  0.80425228  1
  H  H1123  1  0.30286546  0.66286428  0.87047009  1
  N  N1124  1  0.28842428  0.69361619  0.91866962  1
  C  C1125  1  0.31755075  0.66938162  0.84080615  1
  N  N1126  1  0.34208937  0.69629200  0.84404438  1
  C  C1127  1  0.28787905  0.68846507  0.95876560  1
  C  C1128  1  0.36246102  0.70332264  0.81135141  1
  H  H1129  1  0.28535994  0.63186749  0.80497683  1
  C  C1130  1  0.32143045  0.66705206  0.97826924  1
  C  C1131  1  0.35607350  0.68575857  0.77442978  1
  Zn  Zn1132  1  0.34305232  0.72484114  0.89581273  1
  H  H1133  1  0.44397948  0.72858668  0.79508694  1
  C  C1134  1  0.32681601  0.66012335  0.76836628  1
  H  H1135  1  0.42912951  0.58128602  0.77465149  1
  N  N1136  1  0.48578548  0.53799462  0.77073723  1
  C  C1137  1  0.44860211  0.72436905  0.76308952  1
  N  N1138  1  0.48110208  0.70686105  0.76216413  1
  H  H1139  1  0.45103932  0.52729323  0.95470364  1
  C  C1140  1  0.32112867  0.52595066  0.76190977  1
  H  H1141  1  0.34921103  0.64272822  0.92793488  1
  C  C1142  1  0.35089214  0.64730242  0.96054449  1
  H  H1143  1  0.39659299  0.60622079  0.97687798  1
  C  C1144  1  0.37330470  0.62530119  0.98691042  1
  H  H1145  1  0.44692780  0.67631028  0.99032073  1
  H  H1146  1  0.38210890  0.72568101  0.81695068  1
  H  H1147  1  0.34763922  0.53703790  0.75350640  1
  C  C1148  1  0.28898902  0.54899298  0.75389544  1
  C  C1149  1  0.49851768  0.50788894  0.89456412  1
  N  N1150  1  0.14343274  0.76731815  0.76421874  1
  H  H1151  1  0.16049086  0.77193096  0.82112171  1
  C  C1152  1  0.19536112  0.98346367  0.87533007  1
  H  H1153  1  0.21960290  0.79239471  0.98055292  1
  N  N1154  1  0.20258100  0.96601051  0.80515167  1
  C  C1155  1  0.22340667  0.95990445  0.77236447  1
  C  C1156  1  0.19595839  0.80663039  0.77581209  1
  C  C1157  1  0.16669459  0.78328565  0.78838425  1
  C  C1158  1  0.21870521  0.97740533  0.83853303  1
  C  C1159  1  0.13374669  0.99775598  0.90277156  1
  C  C1160  1  0.15661143  0.99205892  0.86980552  1
  H  H1161  1  0.14644717  0.99039288  0.83774063  1
  H  H1162  1  0.21527861  0.81883108  0.79688807  1
  H  H1163  1  0.23549897  0.96990529  0.92206834  1
  H  H1164  1  0.03993740  0.98992327  0.89401362  1
  N  N1165  1  0.14463544  0.99389321  0.94167664  1
  C  C1166  1  0.20613362  0.97909542  0.91560922  1
  C  C1167  1  0.18085057  0.98589824  0.94829059  1
  H  H1168  1  0.19130462  0.98546887  0.97905625  1
  C  C1169  1  0.31391582  0.99119033  0.80598212  1
  N  N1170  1  0.25292506  0.84613593  0.75688426  1
  N  N1171  1  0.35105836  0.89700697  0.85073190  1
  C  C1172  1  0.47767302  0.83563332  0.95720170  1
  C  C1173  1  0.45753177  0.99268885  0.94182918  1
  C  C1174  1  0.42333947  0.94281532  0.99450585  1
  C  C1175  1  0.41420955  0.82310588  0.87509864  1
  H  H1176  1  0.34519948  0.91635278  0.97808739  1
  C  C1177  1  0.45056780  0.88754665  0.95534762  1
  C  C1178  1  0.34491762  0.87408821  0.78369824  1
  N  N1179  1  0.47697465  0.87071820  0.97334046  1
  C  C1180  1  0.42040917  0.98070952  0.99556680  1
  C  C1181  1  0.38162162  0.98455807  0.79724552  1
  N  N1182  1  0.46198381  0.81917936  0.92581326  1
  H  H1183  1  0.35734383  0.83839856  0.88792578  1
  C  C1184  1  0.36803498  0.98428819  0.91975093  1
  N  N1185  1  0.25516712  0.98249721  0.83753035  1
  C  C1186  1  0.49897662  0.80416635  0.98029023  1
  H  H1187  1  0.47635609  0.94479977  0.91010963  1
  C  C1188  1  0.43608127  0.80467550  0.84582932  1
  H  H1189  1  0.43319922  0.78514095  0.78285032  1
  C  C1190  1  0.30663288  0.88159696  0.78276985  1
  C  C1191  1  0.37513505  0.82290983  0.86804293  1
  H  H1192  1  0.29672084  0.75150121  0.95312390  1
  N  N1193  1  0.35150017  0.76062736  0.93962225  1
  C  C1194  1  0.32284416  0.79418772  0.99457127  1
  C  C1195  1  0.34602006  0.96852411  0.79796483  1
  C  C1196  1  0.43564090  0.84000914  0.91149587  1
  C  C1197  1  0.31483711  0.90393160  0.85016178  1
  C  C1198  1  0.34922503  0.94560147  0.96922341  1
  H  H1199  1  0.39660040  0.88044467  0.82151590  1
  H  H1200  1  0.25977920  0.90093662  0.81975799  1
  H  H1201  1  0.41681071  0.81672860  0.98040429  1
  H  H1202  1  0.33211668  0.80560562  0.82289256  1
  N  N1203  1  0.42709799  0.87560014  0.92307545  1
  H  H1204  1  0.34086841  0.93842799  0.79682155  1
  H  H1205  1  0.40789086  0.96807661  0.79289246  1
  H  H1206  1  0.35485592  0.85980128  0.75616177  1
  C  C1207  1  0.27369557  0.97514348  0.80335814  1
  C  C1208  1  0.36210636  0.80564052  0.83332456  1
  C  C1209  1  0.32148634  0.76864386  0.96276200  1
  H  H1210  1  0.30581317  0.91504192  0.88093846  1
  N  N1211  1  0.36273429  0.94980469  0.93307083  1
  Zn  Zn1212  1  0.38072127  0.90578755  0.90057653  1
  C  C1213  1  0.44504509  0.92869454  0.96227325  1
  C  C1214  1  0.29015559  0.89525963  0.81772170  1
  H  H1215  1  0.40626165  0.77052885  0.92890105  1
  C  C1216  1  0.36630175  0.88283139  0.81772813  1
  N  N1217  1  0.25981513  0.96397147  0.76803334  1
  C  C1218  1  0.34264322  0.97688132  0.99298903  1
  C  C1219  1  0.38396243  0.77786936  0.94817827  1
  N  N1220  1  0.38331082  0.79422738  0.80315184  1
  C  C1221  1  0.46013574  0.95469693  0.93527829  1
  H  H1222  1  0.46614624  0.80578233  0.84888873  1
  C  C1223  1  0.38724355  0.80429780  0.97946547  1
  H  H1224  1  0.38005861  0.98141997  0.88926047  1
  C  C1225  1  0.41940272  0.79337825  0.81086151  1
  H  H1226  1  0.49586197  0.99962042  0.81533948  1
  C  C1227  1  0.61301654  0.04179356  0.04857552  1
  C  C1228  1  0.58296105  0.05090069  0.10832096  1
  N  N1229  1  0.59025071  0.08867163  0.11212692  1
  C  C1230  1  0.61348057  0.09354345  0.08015364  1
  N  N1231  1  0.62622080  0.07652814  0.04843269  1
  C  C1232  1  0.62966106  0.13520297  0.08712494  1
  C  C1233  1  0.66302555  0.14106460  0.10803738  1
  H  H1234  1  0.67716037  0.11766335  0.12285386  1
  C  C1235  1  0.55910406  0.03510145  0.14149375  1
  N  N1236  1  0.59056785  0.03034442  0.07705225  1
  Zn  Zn1237  1  0.54297112  0.12695676  0.12528320  1
  C  C1238  1  0.67260886  0.17641423  0.12307618  1
  H  H1239  1  0.58447381  0.16389529  0.06416126  1
  C  C1240  1  0.61050361  0.16772518  0.08019171  1
  H  H1241  1  0.69201313  0.18220677  0.14907538  1
  C  C1242  1  0.58465652  0.17671430  0.20078033  1
  C  C1243  1  0.62034461  0.20198080  0.09635370  1
  N  N1244  1  0.64973594  0.20444821  0.12120181  1
  C  C1245  1  0.57031619  0.20102813  0.16508354  1
  H  H1246  1  0.56618993  0.06898106  0.19475066  1
  N  N1247  1  0.53899593  0.18304645  0.15087117  1
  C  C1248  1  0.55239489  0.04437491  0.18175490  1
  H  H1249  1  0.60021395  0.22487734  0.09788431  1
  C  C1250  1  0.61044420  0.14832333  0.19570924  1
  H  H1251  1  0.62292949  0.14092208  0.16644529  1
  C  C1252  1  0.53053620  0.02149726  0.20717781  1
  C  C1253  1  0.51739565  0.21089822  0.13767503  1
  H  H1254  1  0.70258658  0.04981193  0.21983122  1
  N  N1255  1  0.58659246  0.23538533  0.16587184  1
  C  C1256  1  0.62150864  0.01600240  0.01250222  1
  C  C1257  1  0.62200983  0.12861069  0.23019531  1
  H  H1258  1  0.66946721  0.20519872  0.22363666  1
  C  C1259  1  0.69309416  0.03189343  0.24471859  1
  H  H1260  1  0.53738807  0.23732628  0.05179483  1
  H  H1261  1  0.64349990  0.10699422  0.23444641  1
  H  H1262  1  0.50164721  0.19087822  0.00662791  1
  C  C1263  1  0.52109290  0.02243081  0.01240442  1
  H  H1264  1  0.61158507  0.13315385  0.01784185  1
  C  C1265  1  0.67558496  0.23153083  0.23732235  1
  H  H1266  1  0.52367762  0.02735020  0.23783027  1
  Zn  Zn1267  1  0.64387953  0.24442376  0.16366907  1
  N  N1268  1  0.52512155  0.24717345  0.13473692  1
  C  C1269  1  0.56991554  0.18362211  0.23841946  1
  H  H1270  1  0.54932929  0.20481954  0.23981807  1
  C  C1271  1  0.53918299  0.00162075  0.13190204  1
  H  H1272  1  0.73471435  0.19805846  0.22459095  1
  C  C1273  1  0.55016681  0.24961016  0.02563340  1
  C  C1274  1  0.52023929  0.06268401  0.00137773  1
  H  H1275  1  0.81387549  0.10969080  0.24589244  1
  N  N1276  1  0.86810146  0.00201433  0.05325081  1
  C  C1277  1  0.92922847  0.01209891  0.23079810  1
  C  C1278  1  0.76159797  0.18261619  0.21712322  1
  C  C1279  1  0.80704614  0.13434513  0.22894642  1
  C  C1280  1  0.88499518  0.02027340  0.02527222  1
  H  H1281  1  0.85650371  0.13910437  0.18944113  1
  H  H1282  1  0.92432207  0.03300336  0.20640287  1
  H  H1283  1  0.78066188  0.21480822  0.16185101  1
  C  C1284  1  0.82920835  0.14992086  0.19822443  1
  C  C1285  1  0.78524430  0.19273631  0.18420375  1
  H  H1286  1  0.94444323  0.10554254  0.20108148  1
  C  C1287  1  0.92983409  0.13234549  0.20324307  1
  C  C1288  1  0.93553811  0.16510083  0.17997105  1
  H  H1289  1  0.95228304  0.16154335  0.15256072  1
  C  C1290  1  0.91338978  0.15292969  0.03028148  1
  C  C1291  1  0.84298326  0.15293142  0.05854763  1
  H  H1292  1  0.81576075  0.15373484  0.07212394  1
  C  C1293  1  0.90332037  0.16898186  0.06740359  1
  C  C1294  1  0.89633763  0.19732453  0.22514868  1
  N  N1295  1  0.86878247  0.16962867  0.08074967  1
  H  H1296  1  0.92153323  0.18687804  0.08621490  1
  N  N1297  1  0.81791380  0.17815968  0.17461396  1
  C  C1298  1  0.91949405  0.19812095  0.19105687  1
  Zn  Zn1299  1  0.85239773  0.19574584  0.13016801  1
  C  C1300  1  0.92194934  0.23301184  0.16383114  1
  N  N1301  1  0.89332972  0.23702485  0.13611024  1
  H  H1302  1  0.94268918  0.15699494  0.02086537  1
  C  C1303  1  0.85101604  0.13957228  0.01926119  1
  N  N1304  1  0.91144470  0.13340844  0.23759304  1
  C  C1305  1  0.92437822  0.02126424  0.01885442  1
  C  C1306  1  0.94436747  0.23214448  0.01528854  1
  C  C1307  1  0.97336756  0.23571064  0.04525350  1
  H  H1308  1  0.86915418  0.23044213  0.04443360  1
  C  C1309  1  0.77075600  0.14926424  0.23679269  1
  C  C1310  1  0.88744227  0.13975977  0.00318437  1
  H  H1311  1  0.91481291  0.23994114  0.01908266  1
  C  C1312  1  0.89749733  0.16584140  0.24923349  1
  H  H1313  1  0.88062550  0.22296124  0.23315225  1
  H  H1314  1  0.62147535  0.49398494  0.10273201  1
  N  N1315  1  0.58346855  0.26473085  0.03493028  1
  H  H1316  1  0.62036791  0.30266391  0.02014656  1
  N  N1317  1  0.66775704  0.26020778  0.21313366  1
  C  C1318  1  0.59712238  0.28746076  0.00846301  1
  C  C1319  1  0.55905683  0.25710271  0.15049284  1
  H  H1320  1  0.66686694  0.31479837  0.20087597  1
  C  C1321  1  0.64682705  0.48291331  0.11804522  1
  H  H1322  1  0.55186007  0.29012819  0.08160309  1
  C  C1323  1  0.57170261  0.29695598  0.14271373  1
  C  C1324  1  0.58562420  0.32311883  0.17019781  1
  C  C1325  1  0.56437710  0.30955648  0.10343463  1
  C  C1326  1  0.57451033  0.34554029  0.09276647  1
  C  C1327  1  0.59705327  0.35699235  0.15388567  1
  H  H1328  1  0.57298105  0.35875011  0.06219256  1
  N  N1329  1  0.59259481  0.36862107  0.11711929  1
  H  H1330  1  0.60984044  0.37978522  0.17122937  1
  H  H1331  1  0.55111583  0.39917282  0.03814471  1
  C  C1332  1  0.67747420  0.43060805  0.13885743  1
  N  N1333  1  0.59561810  0.43560925  0.03968585  1
  Zn  Zn1334  1  0.60635964  0.41854046  0.09683234  1
  N  N1335  1  0.64917645  0.44607110  0.12022433  1
  H  H1336  1  0.67191097  0.40071848  0.14105619  1
  C  C1337  1  0.71045110  0.44970461  0.15005094  1
  H  H1338  1  0.59246298  0.31603686  0.20079717  1
  H  H1339  1  0.63333537  0.47452764  0.04365865  1
  C  C1340  1  0.56789706  0.41983014  0.02086220  1
  C  C1341  1  0.61400820  0.46279317  0.02145570  1
  H  H1342  1  0.73748067  0.43674461  0.15896431  1
  C  C1343  1  0.71129584  0.48917226  0.14357061  1
  C  C1344  1  0.67437616  0.29398217  0.22328590  1
  H  H1345  1  0.84778953  0.37826417  0.06824871  1
  C  C1346  1  0.97891866  0.37703551  0.05114759  1
  N  N1347  1  0.91180249  0.30016888  0.12447185  1
  C  C1348  1  0.82295300  0.26559693  0.02608626  1
  N  N1349  1  0.94606496  0.25782365  0.17351854  1
  C  C1350  1  0.99665528  0.37791397  0.17258471  1
  H  H1351  1  0.99061923  0.34029012  0.11972460  1
  H  H1352  1  0.96828817  0.25021420  0.07485159  1
  Zn  Zn1353  1  0.99455776  0.43694694  0.23007145  1
  C  C1354  1  0.87607688  0.45476867  0.14126903  1
  C  C1355  1  0.99790685  0.49898264  0.14779129  1
  N  N1356  1  0.95508929  0.35003709  0.05435189  1
  C  C1357  1  0.81502326  0.49254157  0.13564868  1
  C  C1358  1  0.96266723  0.36593273  0.22761749  1
  H  H1359  1  0.93869752  0.30068456  0.03941900  1
  H  H1360  1  0.92402285  0.41579699  0.14633833  1
  C  C1361  1  0.89056400  0.27087505  0.11815595  1
  C  C1362  1  0.95810236  0.32324798  0.17074049  1
  C  C1363  1  0.93831533  0.28722671  0.15227371  1
  C  C1364  1  0.98286776  0.34713907  0.15092372  1
  N  N1365  1  0.88585114  0.39702417  0.10699783  1
  C  C1366  1  0.84155333  0.46242517  0.12118766  1
  N  N1367  1  0.79863517  0.29266863  0.03256670  1
  H  H1368  1  0.93528039  0.31260660  0.22895469  1
  C  C1369  1  0.85778629  0.27518526  0.08813274  1
  C  C1370  1  0.83181946  0.30534184  0.09286737  1
  H  H1371  1  0.96650921  0.39768620  0.07021347  1
  N  N1372  1  0.77868627  0.48053303  0.13294020  1
  C  C1373  1  0.99160628  0.31683153  0.00606655  1
  C  C1374  1  0.80226082  0.31282388  0.06616380  1
  C  C1375  1  0.85229998  0.40271321  0.08894063  1
  C  C1376  1  0.95124057  0.33192398  0.21003127  1
  C  C1377  1  0.85135251  0.25446225  0.05332167  1
  C  C1378  1  0.82942332  0.43475677  0.09453649  1
  C  C1379  1  0.96159373  0.31942409  0.03307525  1
  H  H1380  1  0.88352496  0.47358655  0.16480247  1
  H  H1381  1  0.78130210  0.33394902  0.07157377  1
  N  N1382  1  0.98439543  0.38909908  0.20915683  1
  H  H1383  1  0.83430046  0.32279865  0.12002029  1
  H  H1384  1  0.80405259  0.43884613  0.07729607  1
  C  C1385  1  0.89625086  0.42243970  0.13228329  1
  Zn  Zn1386  1  0.91301571  0.35121796  0.09457014  1
  N  N1387  1  0.59973988  0.08337013  0.35893493  1
  Zn  Zn1388  1  0.62309595  0.10519770  0.31309364  1
  C  C1389  1  0.58718741  0.10323397  0.39006962  1
  C  C1390  1  0.70220101  0.13957354  0.31652124  1
  N  N1391  1  0.68221026  0.10758019  0.31696600  1
  C  C1392  1  0.68498996  0.16212405  0.35362937  1
  C  C1393  1  0.69298522  0.14910662  0.39213773  1
  C  C1394  1  0.68891111  0.17251914  0.42532995  1
  C  C1395  1  0.59451368  0.04756834  0.35955231  1
  C  C1396  1  0.56687136  0.04851962  0.42708752  1
  H  H1397  1  0.59165187  0.13301044  0.38756616  1
  C  C1398  1  0.66846376  0.19645341  0.35256109  1
  N  N1399  1  0.67796893  0.20723842  0.42209749  1
  C  C1400  1  0.66349164  0.21817192  0.38824620  1
  H  H1401  1  0.66056667  0.20923177  0.32372160  1
  H  H1402  1  0.70185394  0.16672186  0.45499407  1
  C  C1403  1  0.57269506  0.08775142  0.42451220  1
  C  C1404  1  0.70275191  0.08937493  0.28821605  1
  C  C1405  1  0.71846703  0.07032223  0.46898956  1
  C  C1406  1  0.68020411  0.07204252  0.48159437  1
  H  H1407  1  0.56293938  0.10681433  0.44988468  1
  H  H1408  1  0.60224509  0.03057524  0.33150044  1
  C  C1409  1  0.57627024  0.02955911  0.39254019  1
  H  H1410  1  0.65674753  0.07743632  0.46057864  1
  N  N1411  1  0.60812659  0.13608931  0.26563309  1
  C  C1412  1  0.68809942  0.04923796  0.28111795  1
  H  H1413  1  0.57364750  0.16418914  0.30141986  1
  H  H1414  1  0.72612481  0.07787205  0.43964008  1
  H  H1415  1  0.70797257  0.12252580  0.39638522  1
  H  H1416  1  0.66779762  0.04052757  0.34180649  1
  C  C1417  1  0.67227278  0.02754479  0.31275231  1
  C  C1418  1  0.58352020  0.16321223  0.27059998  1
  H  H1419  1  0.70209716  0.21083381  0.28956707  1
  C  C1420  1  0.69382292  0.23788803  0.27365886  1
  N  N1421  1  0.72776442  0.10180562  0.26158284  1
  C  C1422  1  0.74586770  0.05598080  0.49550506  1
  N  N1423  1  0.58926835  0.02171470  0.48763036  1
  C  C1424  1  0.55751480  0.02715199  0.46578985  1
  N  N1425  1  0.73191178  0.15802523  0.29875042  1
  H  H1426  1  0.65964745  0.24869979  0.38651899  1
  Zn  Zn1427  1  0.69130686  0.24741390  0.46303390  1
  H  H1428  1  0.52142263  0.02026768  0.36960106  1
  C  C1429  1  0.74243232  0.13549983  0.26944962  1
  H  H1430  1  0.71558595  0.00751338  0.46378326  1
  N  N1431  1  0.52375352  0.01114502  0.46864296  1
  H  H1432  1  0.64077721  0.01635249  0.46175693  1
  C  C1433  1  0.99300936  0.18880314  0.45151769  1
  C  C1434  1  0.92530922  0.00635324  0.29686687  1
  H  H1435  1  0.75259198  0.18879213  0.41231816  1
  Zn  Zn1436  1  0.76065262  0.20373270  0.31987717  1
  H  H1437  1  0.98577931  0.08830248  0.43588632  1
  N  N1438  1  0.96054831  0.02110609  0.46060027  1
  N  N1439  1  0.85591606  0.02535261  0.45021001  1
  C  C1440  1  0.77521491  0.20762122  0.41942053  1
  H  H1441  1  0.89980328  0.08690533  0.42590551  1
  C  C1442  1  0.83275537  0.05185055  0.43528482  1
  N  N1443  1  0.79759195  0.06152848  0.44849597  1
  C  C1444  1  0.88420150  0.08465563  0.39677362  1
  C  C1445  1  0.84741273  0.07089380  0.39702255  1
  C  C1446  1  0.90328172  0.09085805  0.36026962  1
  N  N1447  1  0.88757850  0.08354734  0.32489330  1
  C  C1448  1  0.85242789  0.07310004  0.32335351  1
  H  H1449  1  0.89022634  0.15765417  0.36965430  1
  H  H1450  1  0.93227270  0.10001932  0.35454636  1
  C  C1451  1  0.83137864  0.06849630  0.35879158  1
  H  H1452  1  0.82199129  0.14783406  0.34254128  1
  C  C1453  1  0.87366401  0.18021191  0.35798395  1
  C  C1454  1  0.83633390  0.17510595  0.34387468  1
  H  H1455  1  0.94742419  0.14931823  0.42309250  1
  H  H1456  1  0.81169710  0.16549206  0.45110892  1
  N  N1457  1  0.91407030  0.14505296  0.47071885  1
  Zn  Zn1458  1  0.89116494  0.19063606  0.45156205  1
  C  C1459  1  0.89123767  0.21390411  0.35585413  1
  C  C1460  1  0.93274519  0.22079624  0.37305452  1
  C  C1461  1  0.80797811  0.19335591  0.43849109  1
  C  C1462  1  0.97522802  0.20959578  0.41680873  1
  N  N1463  1  0.93661547  0.21161334  0.41258013  1
  N  N1464  1  0.81524582  0.20313015  0.33142650  1
  N  N1465  1  0.84007882  0.21192132  0.44124049  1
  C  C1466  1  0.96113627  0.09774995  0.45517991  1
  C  C1467  1  0.94126960  0.13138971  0.44821566  1
  C  C1468  1  0.78515154  0.04289072  0.47969175  1
  H  H1469  1  0.84294435  0.06719067  0.29218504  1
  N  N1470  1  0.97386763  0.09362037  0.27274526  1
  H  H1471  1  0.80395785  0.05497700  0.35880721  1
  Zn  Zn1472  1  0.91777451  0.08634187  0.27420525  1
  C  C1473  1  0.99054204  0.12555882  0.27097499  1
  H  H1474  1  0.88741970  0.16265789  0.27829426  1
  H  H1475  1  0.92226099  0.02265216  0.32383274  1
  N  N1476  1  0.92430542  0.02802057  0.26562757  1
  Zn  Zn1477  1  0.91051536  0.01384759  0.43621541  1
  H  H1478  1  0.98080125  0.03664821  0.27624019  1
  C  C1479  1  0.83425244  0.01025292  0.47862645  1
  H  H1480  1  0.96930824  0.14782158  0.26894741  1
  N  N1481  1  0.95407259  0.22851518  0.34159719  1
  C  C1482  1  0.98033864  0.18834149  0.49176087  1
  C  C1483  1  0.95013951  0.07894712  0.48920879  1
  C  C1484  1  0.83272604  0.23547104  0.32573525  1
  N  N1485  1  0.79826092  0.01103167  0.49641862  1
  H  H1486  1  0.96903169  0.23064877  0.27194915  1
  C  C1487  1  0.98973322  0.22471680  0.35228148  1
  C  C1488  1  0.99601660  0.06353971  0.27618249  1
  C  C1489  1  0.96897319  0.04062938  0.49317637  1
  C  C1490  1  0.77328466  0.24436110  0.40750639  1
  C  C1491  1  0.86977986  0.24257412  0.33880906  1
  C  C1492  1  0.83917388  0.24728551  0.43158631  1
  N  N1493  1  0.74072142  0.25584907  0.34431357  1
  C  C1494  1  0.74051646  0.26390309  0.38463803  1
  H  H1495  1  0.69155180  0.33061506  0.27047507  1
  C  C1496  1  0.68774418  0.30170959  0.26279563  1
  H  H1497  1  0.63072166  0.33216077  0.37272214  1
  C  C1498  1  0.69819666  0.27314351  0.28896439  1
  N  N1499  1  0.72014003  0.28026463  0.41471069  1
  C  C1500  1  0.71372403  0.27941087  0.33072076  1
  C  C1501  1  0.69767640  0.30306969  0.39323588  1
  N  N1502  1  0.69234797  0.30199056  0.35348140  1
  C  C1503  1  0.67433375  0.33730216  0.45872077  1
  C  C1504  1  0.63880352  0.34208952  0.40290646  1
  C  C1505  1  0.67407743  0.32934822  0.41746407  1
  C  C1506  1  0.61021372  0.35871676  0.42501968  1
  H  H1507  1  0.58171568  0.36377154  0.41269633  1
  H  H1508  1  0.69744282  0.32903530  0.47787995  1
  N  N1509  1  0.61206718  0.36407643  0.46320680  1
  C  C1510  1  0.64596906  0.35688728  0.47855141  1
  C  C1511  1  0.98269151  0.47715708  0.46010271  1
  C  C1512  1  0.80676717  0.26434014  0.41620469  1
  H  H1513  1  0.88161972  0.26983692  0.33459586  1
  H  H1514  1  0.98430868  0.41802218  0.48031228  1
  C  C1515  1  0.98655504  0.43929963  0.45586095  1
  C  C1516  1  0.98271507  0.49801619  0.42402563  1
  H  H1517  1  0.93443366  0.44266317  0.29439327  1
  N  N1518  1  0.97865312  0.47429699  0.27042495  1
  H  H1519  1  0.80894516  0.29318425  0.40787809  1
  H  H1520  1  0.86938016  0.25837268  0.43253665  1
  N  N1521  1  0.99031077  0.42127246  0.42081764  1
  H  H1522  1  0.97373995  0.49056826  0.48831902  1
  H  H1523  1  0.81497365  0.25700967  0.31178674  1
  C  C1524  1  0.98737003  0.44051398  0.38739244  1
  C  C1525  1  0.95005146  0.46949014  0.29453243  1
  H  H1526  1  0.95367411  0.37971567  0.25699395  1
  H  H1527  1  0.98694294  0.42076156  0.36205260  1
  H  H1528  1  0.99206389  0.49136079  0.35657616  1
  C  C1529  1  0.98821850  0.47891141  0.38715239  1
  H  H1530  1  0.91395139  0.49931448  0.33447342  1
  N  N1531  1  0.57429184  0.05609022  0.56940237  1
  C  C1532  1  0.52398304  0.04317870  0.63453406  1
  C  C1533  1  0.55384437  0.06901071  0.63700793  1
  H  H1534  1  0.60487261  0.08800509  0.60353368  1
  C  C1535  1  0.57795817  0.07397299  0.60375484  1
  H  H1536  1  0.56037779  0.08344381  0.66474535  1
  C  C1537  1  0.50984776  0.02539862  0.67292213  1
  N  N1538  1  0.52922669  0.03071959  0.70850239  1
  C  C1539  1  0.54312715  0.03616707  0.56506552  1
  H  H1540  1  0.68222267  0.05546427  0.57459423  1
  H  H1541  1  0.62091887  0.07827896  0.69617822  1
  C  C1542  1  0.51698456  0.02915935  0.59628913  1
  C  C1543  1  0.69659263  0.05691097  0.54389911  1
  C  C1544  1  0.60113750  0.17489269  0.69337576  1
  C  C1545  1  0.63406757  0.06993419  0.72498877  1
  H  H1546  1  0.54083994  0.17002258  0.68033407  1
  C  C1547  1  0.56323981  0.16437201  0.70257791  1
  Zn  Zn1548  1  0.61393725  0.05888132  0.52681155  1
  N  N1549  1  0.62760204  0.17077479  0.72127276  1
  H  H1550  1  0.61019577  0.18792246  0.66555720  1
  C  C1551  1  0.73513540  0.04953606  0.53516379  1
  C  C1552  1  0.55250312  0.14962824  0.73925956  1
  H  H1553  1  0.66699019  0.11915474  0.73763697  1
  H  H1554  1  0.54482576  0.02164304  0.53664364  1
  N  N1555  1  0.62324795  0.03612904  0.73614619  1
  C  C1556  1  0.65942209  0.09081157  0.74778606  1
  C  C1557  1  0.50755394  0.02884159  0.74286284  1
  Zn  Zn1558  1  0.58544506  0.00924622  0.70688587  1
  H  H1559  1  0.74870384  0.24423775  0.52020622  1
  N  N1560  1  0.66915733  0.06364270  0.51827892  1
  H  H1561  1  0.75443400  0.03959317  0.55802590  1
  H  H1562  1  0.88323154  0.02346898  0.54270108  1
  H  H1563  1  0.90967413  0.07480046  0.53823886  1
  N  N1564  1  0.99718827  0.03718493  0.52300256  1
  H  H1565  1  0.87904192  0.14068054  0.51850488  1
  C  C1566  1  0.91908815  0.09183811  0.51366165  1
  H  H1567  1  0.98043510  0.15590518  0.54730173  1
  C  C1568  1  0.99061543  0.15880170  0.51737504  1
  H  H1569  1  0.94060323  0.19974524  0.74503360  1
  C  C1570  1  0.99975063  0.18940548  0.74690865  1
  C  C1571  1  0.90344034  0.12631109  0.50343796  1
  H  H1572  1  0.96037907  0.20916038  0.50124531  1
  C  C1573  1  0.72724427  0.25701514  0.53848190  1
  N  N1574  1  0.69616642  0.26297848  0.51681395  1
  H  H1575  1  0.57144054  0.47618837  0.66021675  1
  C  C1576  1  0.66929627  0.28492100  0.53204838  1
  N  N1577  1  0.52495716  0.39867750  0.63032152  1
  H  H1578  1  0.59926520  0.44928604  0.55005814  1
  C  C1579  1  0.60902391  0.46751116  0.57535984  1
  H  H1580  1  0.64701391  0.31823441  0.57975097  1
  C  C1581  1  0.70215509  0.29448925  0.59432600  1
  C  C1582  1  0.67046371  0.29976296  0.57169339  1
  C  C1583  1  0.64866599  0.46578588  0.62713253  1
  H  H1584  1  0.62039862  0.35990288  0.65939935  1
  H  H1585  1  0.56849849  0.39787528  0.70146060  1
  N  N1586  1  0.68384074  0.33627828  0.64836624  1
  C  C1587  1  0.67178499  0.40742735  0.73016379  1
  C  C1588  1  0.55155935  0.42451733  0.63596493  1
  H  H1589  1  0.66615609  0.44638677  0.64217127  1
  C  C1590  1  0.66531496  0.38179275  0.69813053  1
  C  C1591  1  0.69425270  0.35602257  0.68087152  1
  C  C1592  1  0.62781852  0.38019845  0.68340729  1
  C  C1593  1  0.59886873  0.39845169  0.70518750  1
  N  N1594  1  0.60262780  0.41682971  0.73870609  1
  H  H1595  1  0.57334327  0.41861652  0.61309469  1
  N  N1596  1  0.63020756  0.44806800  0.59990905  1
  C  C1597  1  0.54894166  0.45546380  0.66098381  1
  C  C1598  1  0.71123590  0.31617887  0.63323754  1
  N  N1599  1  0.72747723  0.34801157  0.69947288  1
  C  C1600  1  0.51793322  0.45786348  0.68678991  1
  H  H1601  1  0.73379257  0.36264698  0.72399087  1
  C  C1602  1  0.51156508  0.48868666  0.71769123  1
  H  H1603  1  0.64564533  0.28963832  0.50891963  1
  H  H1604  1  0.70635829  0.49271439  0.69164411  1
  H  H1605  1  0.64553924  0.36447360  0.51078319  1
  C  C1606  1  0.73678863  0.49617482  0.69426005  1
  H  H1607  1  0.70055987  0.41086371  0.74150833  1
  C  C1608  1  0.73074159  0.27274661  0.57574797  1
  C  C1609  1  0.63899545  0.42035844  0.74897968  1
  N  N1610  1  0.74550068  0.30687757  0.64508587  1
  H  H1611  1  0.70641404  0.25791250  0.74241165  1
  H  H1612  1  0.96556986  0.31527302  0.71452800  1
  N  N1613  1  0.99815215  0.45989178  0.58682135  1
  C  C1614  1  0.78915040  0.31416446  0.69848442  1
  H  H1615  1  0.94877470  0.37873101  0.68328832  1
  C  C1616  1  0.97713421  0.32432487  0.68584160  1
  Zn  Zn1617  1  0.96750822  0.41943610  0.61123758  1
  H  H1618  1  0.82605014  0.30372085  0.64720861  1
  C  C1619  1  0.82299768  0.30460473  0.68152656  1
  C  C1620  1  0.85475386  0.29603275  0.70587205  1
  H  H1621  1  0.91896774  0.46257801  0.54053821  1
  C  C1622  1  0.75074487  0.32567969  0.67892119  1
  H  H1623  1  0.75591958  0.26736872  0.59530220  1
  C  C1624  1  0.87783382  0.49691324  0.57370009  1
  H  H1625  1  0.88526126  0.29044613  0.69886572  1
  H  H1626  1  0.85176066  0.48237108  0.56661713  1
  C  C1627  1  0.79159936  0.48906322  0.72775248  1
  C  C1628  1  0.91423791  0.48464325  0.56284435  1
  C  C1629  1  0.98514442  0.49025046  0.57000728  1
  C  C1630  1  0.96672151  0.35799734  0.66869776  1
  N  N1631  1  0.98100668  0.37029625  0.63449690  1
  C  C1632  1  0.75234605  0.48170888  0.72972860  1
  N  N1633  1  0.85310476  0.29317302  0.74535785  1
  C  C1634  1  0.79000563  0.31708761  0.73995981  1
  C  C1635  1  0.59078505  0.11942028  0.95954824  1
  C  C1636  1  0.60140911  0.11744286  0.92024236  1
  C  C1637  1  0.63924395  0.12565715  0.90837117  1
  N  N1638  1  0.70279518  0.13931952  0.80043166  1
  C  C1639  1  0.70331371  0.10262552  0.80994065  1
  H  H1640  1  0.65004690  0.12467248  0.87777316  1
  H  H1641  1  0.58252839  0.10579928  0.89841932  1
  N  N1642  1  0.52374670  0.13604814  0.97448265  1
  N  N1643  1  0.66207120  0.14217793  0.93349551  1
  Zn  Zn1644  1  0.52064816  0.18141217  0.82979544  1
  C  C1645  1  0.65262979  0.14715483  0.97154682  1
  Zn  Zn1646  1  0.71073577  0.16334914  0.91486417  1
  H  H1647  1  0.60163803  0.19385703  0.80651933  1
  N  N1648  1  0.57341267  0.18913094  0.85924065  1
  C  C1649  1  0.60510041  0.19636591  0.83999035  1
  C  C1650  1  0.57496823  0.19232215  0.89867316  1
  C  C1651  1  0.60513061  0.20204288  0.92299641  1
  Zn  Zn1652  1  0.52570174  0.18019952  0.92707778  1
  H  H1653  1  0.50762729  0.17809857  0.88013647  1
  H  H1654  1  0.60100495  0.08284081  0.82847006  1
  C  C1655  1  0.54996828  0.10762622  0.97649077  1
  N  N1656  1  0.70514820  0.21994089  0.92300500  1
  C  C1657  1  0.63865328  0.20497732  0.86022860  1
  C  C1658  1  0.63812534  0.21366632  0.90159844  1
  H  H1659  1  0.60201805  0.20350744  0.95490373  1
  C  C1660  1  0.57468851  0.06726785  0.82335044  1
  C  C1661  1  0.66123326  0.04512248  0.79448891  1
  H  H1662  1  0.52462680  0.09257896  0.86524884  1
  C  C1663  1  0.67475331  0.07854041  0.78405602  1
  C  C1664  1  0.55658774  0.06469481  0.78688429  1
  H  H1665  1  0.66445980  0.20798871  0.84313496  1
  C  C1666  1  0.71139348  0.20995021  0.78228576  1
  N  N1667  1  0.71785730  0.08204149  0.83902415  1
  C  C1668  1  0.52563198  0.03994185  0.78250732  1
  C  C1669  1  0.71970769  0.15668352  0.82826587  1
  C  C1670  1  0.72324996  0.19770195  0.81906383  1
  H  H1671  1  0.67088319  0.03254516  0.82410291  1
  N  N1672  1  0.50360599  0.13788708  0.79187033  1
  C  C1673  1  0.66995279  0.23639083  0.92010833  1
  H  H1674  1  0.57857783  0.12973138  0.79512000  1
  N  N1675  1  0.56894306  0.04558263  0.85490429  1
  C  C1676  1  0.63534715  0.02367974  0.77128696  1
  C  C1677  1  0.61726903  0.13495823  0.98548372  1
  N  N1678  1  0.55313994  0.07330835  0.98736993  1
  N  N1679  1  0.73228219  0.14238267  0.86582096  1
  C  C1680  1  0.58255874  0.14274743  0.76691636  1
  C  C1681  1  0.53623353  0.02682510  0.85235207  1
  H  H1682  1  0.67314449  0.16222413  0.99101163  1
  H  H1683  1  0.64286709  0.15502007  0.77577537  1
  C  C1684  1  0.73908192  0.22494861  0.84437738  1
  C  C1685  1  0.63032103  0.00987220  0.94233381  1
  H  H1686  1  0.56651545  0.08198975  0.76323352  1
  N  N1687  1  0.50512688  0.24274576  0.91020708  1
  H  H1688  1  0.52875453  0.01269720  0.88125796  1
  C  C1689  1  0.51660455  0.01996153  0.81716538  1
  C  C1690  1  0.73432309  0.10347314  0.86340926  1
  H  H1691  1  0.63705120  0.01916424  0.91206500  1
  H  H1692  1  0.73641594  0.03475128  0.91706071  1
  H  H1693  1  0.55935447  0.00482622  0.96509618  1
  H  H1694  1  0.50460911  0.24324897  0.98175813  1
  C  C1695  1  0.73220414  0.24392286  0.93951770  1
  C  C1696  1  0.62940270  0.03284523  0.97638052  1
  H  H1697  1  0.63441644  0.06347317  0.97300038  1
  C  C1698  1  0.61815154  0.15460005  0.75534144  1
  C  C1699  1  0.51293376  0.13812382  0.75045779  1
  H  H1700  1  0.69875685  0.19273739  0.75909351  1
  C  C1701  1  0.71294118  0.24747988  0.77201900  1
  H  H1702  1  0.50148564  0.07974618  0.93763477  1
  H  H1703  1  0.75176112  0.21696592  0.87278756  1
  H  H1704  1  0.78484234  0.02410982  0.97027609  1
  C  C1705  1  0.75810173  0.05546152  0.91848451  1
  H  H1706  1  0.96692532  0.18296104  0.86195439  1
  N  N1707  1  0.97544153  0.13093050  0.80091065  1
  H  H1708  1  0.96145530  0.02361337  0.91358682  1
  H  H1709  1  0.80169764  0.13131762  0.88414464  1
  C  C1710  1  0.79445890  0.10753654  0.89976823  1
  C  C1711  1  0.95037740  0.15335037  0.78287210  1
  C  C1712  1  0.76084574  0.08768995  0.89400126  1
  C  C1713  1  0.81987277  0.09442396  0.92842974  1
  C  C1714  1  0.78437696  0.04749107  0.94909544  1
  N  N1715  1  0.81524307  0.06677684  0.95366812  1
  C  C1716  1  0.90860302  0.08498943  0.91643273  1
  C  C1717  1  0.89926776  0.12672923  0.96007825  1
  N  N1718  1  0.90044212  0.09009614  0.95500958  1
  N  N1719  1  0.91463731  0.10423029  0.88159567  1
  C  C1720  1  0.90345815  0.04219879  0.90689147  1
  C  C1721  1  0.86634487  0.02845813  0.89894490  1
  H  H1722  1  0.84111819  0.04575393  0.89842987  1
  C  C1723  1  0.90780933  0.13988516  0.89424229  1
  N  N1724  1  0.90229934  0.15263849  0.93172612  1
  C  C1725  1  0.87005386  0.18220041  0.84928876  1
  C  C1726  1  0.90555141  0.17240181  0.86500152  1
  C  C1727  1  0.93822078  0.19011036  0.85093854  1
  H  H1728  1  0.84407322  0.16984131  0.86134246  1
  C  C1729  1  0.78785971  0.19825413  0.94955321  1
  C  C1730  1  0.82691887  0.19543173  0.95140989  1
  Zn  Zn1731  1  0.90724034  0.20957793  0.94449381  1
  N  N1732  1  0.85196670  0.22193409  0.94194457  1
  C  C1733  1  0.93185960  0.21918582  0.82387728  1
  C  C1734  1  0.86734145  0.21254476  0.82420661  1
  N  N1735  1  0.89839232  0.23023068  0.81072774  1
  H  H1736  1  0.84113339  0.22479701  0.81174169  1
  H  H1737  1  0.92037195  0.14775082  0.79196404  1
  C  C1738  1  0.77403997  0.23448727  0.94077741  1
  H  H1739  1  0.84725368  0.10644887  0.93328057  1
  Zn  Zn1740  1  0.95955238  0.09499977  0.83993743  1
  H  H1741  1  0.98480710  0.19410482  0.94165497  1
  C  C1742  1  0.98373996  0.20533410  0.97152568  1
  C  C1743  1  0.93171662  0.01664589  0.90742728  1
  N  N1744  1  0.94893135  0.21577919  0.97975474  1
  Zn  Zn1745  1  0.85802746  0.05193503  0.99217287  1
  H  H1746  1  0.93633932  0.03468565  0.99213769  1
  H  H1747  1  0.76799023  0.17597631  0.95741556  1
  C  C1748  1  0.96202846  0.18277509  0.75761448  1
  H  H1749  1  0.98422929  0.11228533  0.91536550  1
  H  H1750  1  0.95600634  0.23410976  0.81210850  1
  N  N1751  1  0.99583339  0.07004046  0.87773696  1
  H  H1752  1  0.83902072  0.16847243  0.95794598  1
  C  C1753  1  0.99801398  0.08406936  0.91494725  1
  N  N1754  1  0.99306313  0.00637696  0.99200800  1
  H  H1755  1  0.82944798  0.12667910  0.99957346  1
  N  N1756  1  0.50366388  0.25746912  0.84046861  1
  C  C1757  1  0.50353879  0.41269021  0.85069407  1
  C  C1758  1  0.53301125  0.25189346  0.98843333  1
  C  C1759  1  0.73778017  0.26173839  0.83290124  1
  C  C1760  1  0.58248449  0.29144701  0.97020862  1
  H  H1761  1  0.59652893  0.31028262  0.94778700  1
  C  C1762  1  0.53721019  0.26434124  0.91491597  1
  C  C1763  1  0.55406647  0.26658144  0.95627395  1
  H  H1764  1  0.58726649  0.49376823  0.76841517  1
  N  N1765  1  0.72373964  0.27111565  0.79730033  1
  H  H1766  1  0.62572864  0.49559315  0.96672582  1
  C  C1767  1  0.51892898  0.36156552  0.78285765  1
  C  C1768  1  0.58614427  0.46901478  0.85326035  1
  N  N1769  1  0.55911075  0.45100768  0.83258765  1
  C  C1770  1  0.53985757  0.43373835  0.86253417  1
  C  C1771  1  0.57501437  0.32028980  0.80562238  1
  H  H1772  1  0.72734556  0.40205406  0.89235813  1
  C  C1773  1  0.57869892  0.45125114  0.91219474  1
  Zn  Zn1774  1  0.55704097  0.43405883  0.77344978  1
  N  N1775  1  0.54631080  0.43446516  0.90208284  1
  C  C1776  1  0.70801238  0.38690739  0.91365407  1
  N  N1777  1  0.55256685  0.37698316  0.77921562  1
  H  H1778  1  0.62968588  0.42429947  0.83467928  1
  H  H1779  1  0.59626654  0.37350185  0.87137043  1
  C  C1780  1  0.64451030  0.39773102  0.83803490  1
  C  C1781  1  0.62536619  0.36917500  0.85789144  1
  N  N1782  1  0.67610364  0.40429170  0.92240269  1
  N  N1783  1  0.72686466  0.27868410  0.95224249  1
  N  N1784  1  0.55541360  0.28285742  0.88659960  1
  N  N1785  1  0.65954431  0.27164516  0.92459173  1
  C  C1786  1  0.69162833  0.28747460  0.94098585  1
  Zn  Zn1787  1  0.61696627  0.29363287  0.88501825  1
  C  C1788  1  0.53311775  0.27706051  0.85318084  1
  H  H1789  1  0.68330401  0.30255354  0.83876286  1
  C  C1790  1  0.69353948  0.35985241  0.82135909  1
  C  C1791  1  0.54078236  0.30816696  0.82070712  1
  C  C1792  1  0.65918556  0.35231847  0.96061066  1
  N  N1793  1  0.64011533  0.33570228  0.85758910  1
  C  C1794  1  0.65343791  0.38978921  0.95059827  1
  Zn  Zn1795  1  0.66521967  0.45138886  0.90009656  1
  C  C1796  1  0.68702807  0.33093467  0.94136094  1
  C  C1797  1  0.68056330  0.39607474  0.82171033  1
  C  C1798  1  0.67210900  0.32988824  0.83783930  1
  C  C1799  1  0.71707469  0.34977599  0.92314761  1
  N  N1800  1  0.60551763  0.46700773  0.88986074  1
  H  H1801  1  0.63161439  0.40604416  0.96288149  1
  C  C1802  1  0.70349204  0.43250047  0.81488038  1
  N  N1803  1  0.70275602  0.45511186  0.84653407  1
  C  C1804  1  0.57962174  0.35285178  0.78184931  1
  C  C1805  1  0.58714208  0.44973426  0.95827832  1
  H  H1806  1  0.64012255  0.33839858  0.98149001  1
  H  H1807  1  0.54456915  0.40870428  0.96140614  1
  H  H1808  1  0.60059024  0.30595216  0.81745477  1
  C  C1809  1  0.61318625  0.47100066  0.98060983  1
  N  N1810  1  0.72009354  0.44218909  0.78102654  1
  H  H1811  1  0.72175976  0.35502073  0.80620753  1
  C  C1812  1  0.56511362  0.42440368  0.97846836  1
  H  H1813  1  0.60773232  0.36275676  0.77219953  1
  H  H1814  1  0.63710338  0.43522731  0.77708713  1
  C  C1815  1  0.73662591  0.47373625  0.77293572  1
  C  C1816  1  0.51159463  0.32818179  0.80371100  1
  C  C1817  1  0.72171254  0.48672488  0.83235672  1
  H  H1818  1  0.74282951  0.33648467  0.91181610  1
  N  N1819  1  0.51566944  0.47585877  0.75481850  1
  C  C1820  1  0.60986484  0.49737251  0.82969872  1
  H  H1821  1  0.50585189  0.36898608  0.89380540  1
  H  H1822  1  0.74747529  0.28733571  0.84709442  1
  H  H1823  1  0.80592977  0.48363528  0.75702598  1
  H  H1824  1  0.99866995  0.29031885  0.99355934  1
  H  H1825  1  0.81716718  0.25263086  0.99594512  1
  C  C1826  1  0.83951839  0.25277414  0.92626912  1
  C  C1827  1  0.97844406  0.28933802  0.77160442  1
  C  C1828  1  0.80113613  0.25974355  0.92540507  1
  H  H1829  1  0.97618890  0.26029707  0.77102387  1
  H  H1830  1  0.97631507  0.39161334  0.78206789  1
  H  H1831  1  0.79152114  0.28685870  0.91243340  1
  H  H1832  1  0.76437053  0.32490901  0.75600494  1
  H  H1833  1  0.85946316  0.27311706  0.91310186  1
  C  C1834  1  0.82069100  0.30201658  0.76223760  1
  C  C1835  1  0.97945175  0.36252468  0.77450826  1
  H  H1836  1  0.82355171  0.29761391  0.79424364  1
  H  H1837  1  0.91975617  0.35159051  0.78491476  1
  N  N1838  1  0.94397227  0.30339824  0.77333535  1
  C  C1839  1  0.94777051  0.34058075  0.77881347  1
  Zn  Zn1840  1  0.89386270  0.27373223  0.77840455  1
  Zn  Zn1841  1  0.75697958  0.30461905  0.99718060  1
  H  H1842  1  0.99769166  0.47346131  0.77046536  1
  H  H1843  1  0.63713037  0.64162084  0.08680111  1
  C  C1844  1  0.64515617  0.66297629  0.10623149  1
  H  H1845  1  0.61565490  0.63317411  0.15735674  1
  C  C1846  1  0.62962096  0.66016917  0.14469897  1
  N  N1847  1  0.66867743  0.66214502  0.03351435  1
  N  N1848  1  0.63870791  0.68719464  0.16956322  1
  C  C1849  1  0.65534120  0.71833880  0.15629196  1
  C  C1850  1  0.66804125  0.69232171  0.09348751  1
  C  C1851  1  0.67009946  0.72347376  0.11802197  1
  C  C1852  1  0.69193353  0.68096608  0.05631368  1
  H  H1853  1  0.67887865  0.53461380  0.12234609  1
  Zn  Zn1854  1  0.62522160  0.68864812  0.22589023  1
  C  C1855  1  0.71653256  0.65718486  0.21047914  1
  H  H1856  1  0.70630252  0.62875960  0.21866091  1
  Zn  Zn1857  1  0.54581852  0.68662125  0.01896696  1
  C  C1858  1  0.72916634  0.66613613  0.17058499  1
  N  N1859  1  0.73046229  0.67952761  0.05878736  1
  H  H1860  1  0.72941794  0.64567490  0.14729629  1
  H  H1861  1  0.65806228  0.73745348  0.18143984  1
  C  C1862  1  0.72902955  0.72053983  0.22575559  1
  H  H1863  1  0.67067268  0.56951140  0.02888066  1
  N  N1864  1  0.53009682  0.73608182  0.00565372  1
  C  C1865  1  0.71646423  0.68522549  0.23893356  1
  C  C1866  1  0.69125180  0.63957372  0.01210931  1
  N  N1867  1  0.51582371  0.64113596  0.01568493  1
  C  C1868  1  0.67710083  0.50588467  0.13124257  1
  N  N1869  1  0.74202458  0.69881337  0.15986645  1
  H  H1870  1  0.68489094  0.74887943  0.10818626  1
  C  C1871  1  0.74536430  0.65127804  0.03506556  1
  C  C1872  1  0.74182120  0.72567634  0.18651148  1
  N  N1873  1  0.72939942  0.63241018  0.00578559  1
  H  H1874  1  0.73993267  0.58828800  0.07430470  1
  C  C1875  1  0.53807253  0.73943924  0.23972857  1
  H  H1876  1  0.55655783  0.74946320  0.21652003  1
  C  C1877  1  0.65145225  0.57938252  0.00529253  1
  H  H1878  1  0.72535320  0.74543004  0.24317279  1
  H  H1879  1  0.60639113  0.53637216  0.00843329  1
  H  H1880  1  0.75741981  0.60112485  0.19536762  1
  C  C1881  1  0.97169834  0.50903630  0.17813423  1
  Zn  Zn1882  1  0.75917748  0.70358698  0.10502950  1
  N  N1883  1  0.76320939  0.53264184  0.16482923  1
  H  H1884  1  0.91705745  0.53872723  0.18761624  1
  N  N1885  1  0.83090229  0.52323813  0.15106545  1
  C  C1886  1  0.79928593  0.53951287  0.16946355  1
  H  H1887  1  0.82161118  0.67390207  0.05142135  1
  Zn  Zn1888  1  0.87049817  0.55785824  0.11947361  1
  H  H1889  1  0.87081936  0.63143041  0.08583778  1
  C  C1890  1  0.84356060  0.62092110  0.07548225  1
  N  N1891  1  0.83447813  0.58824398  0.08919455  1
  C  C1892  1  0.81604898  0.64494899  0.05977650  1
  C  C1893  1  0.77919465  0.63274613  0.05650570  1
  C  C1894  1  0.76873225  0.59611908  0.07027655  1
  C  C1895  1  0.79831568  0.57670805  0.08756874  1
  C  C1896  1  0.81083004  0.57176138  0.19552525  1
  H  H1897  1  0.79562904  0.54998052  0.10319162  1
  C  C1898  1  0.84664110  0.57094600  0.21452297  1
  H  H1899  1  0.86582243  0.54702438  0.21032260  1
  N  N1900  1  0.92479934  0.53489168  0.12980995  1
  C  C1901  1  0.78630074  0.60115106  0.20614551  1
  C  C1902  1  0.80099581  0.62789654  0.23203880  1
  C  C1903  1  0.93779374  0.52694512  0.16677370  1
  C  C1904  1  0.85836821  0.60037718  0.23889196  1
  H  H1905  1  0.78337935  0.64955787  0.24455229  1
  H  H1906  1  0.97812257  0.50149039  0.20830059  1
  C  C1907  1  0.95192670  0.52597090  0.10384087  1
  N  N1908  1  0.83503302  0.62720278  0.24823449  1
  H  H1909  1  0.93676414  0.53050205  0.07465740  1
  C  C1910  1  0.98700410  0.50820557  0.10902339  1
  C  C1911  1  0.75109525  0.50335688  0.14509652  1
  H  H1912  1  0.50124878  0.95700459  0.15207295  1
  C  C1913  1  0.68274194  0.99379349  0.24130823  1
  N  N1914  1  0.51171052  0.99201036  0.19634535  1
  H  H1915  1  0.54328087  0.99225729  0.10149701  1
  N  N1916  1  0.51122754  0.94468061  0.02510037  1
  H  H1917  1  0.52762965  0.88530401  0.11239257  1
  H  H1918  1  0.62419750  0.96262634  0.04190724  1
  C  C1919  1  0.58015403  0.91040308  0.16679579  1
  C  C1920  1  0.55246466  0.87283570  0.23044079  1
  H  H1921  1  0.54713428  0.82898836  0.18383856  1
  C  C1922  1  0.55667624  0.85694738  0.19258699  1
  C  C1923  1  0.55952470  0.91097988  0.23303303  1
  C  C1924  1  0.57239477  0.93152654  0.20068218  1
  N  N1925  1  0.56960152  0.87638694  0.16133232  1
  H  H1926  1  0.59360024  0.92055323  0.13718237  1
  H  H1927  1  0.57981954  0.96023107  0.20422078  1
  H  H1928  1  0.68466928  0.98127216  0.21043712  1
  C  C1929  1  0.63605429  0.85120797  0.23502788  1
  H  H1930  1  0.61233143  0.86944628  0.22281555  1
  C  C1931  1  0.63473095  0.81271297  0.23028578  1
  H  H1932  1  0.60970736  0.79757891  0.21772869  1
  C  C1933  1  0.62173168  0.97739598  0.01267667  1
  C  C1934  1  0.51685033  0.98205618  0.15858559  1
  H  H1935  1  0.75058862  0.75311671  0.17299906  1
  H  H1936  1  0.87521971  0.97077218  0.09630005  1
  C  C1937  1  0.99125230  0.99593193  0.02863314  1
  C  C1938  1  0.93127370  0.82384819  0.20762304  1
  H  H1939  1  0.94339157  0.96445439  0.19625981  1
  C  C1940  1  0.89191408  0.98169428  0.07245687  1
  N  N1941  1  0.93982846  0.88700625  0.23436578  1
  C  C1942  1  0.89338101  0.81821826  0.21907508  1
  C  C1943  1  0.95268632  0.85152523  0.23566164  1
  H  H1944  1  0.94763097  0.95681890  0.08858173  1
  C  C1945  1  0.92333646  0.77718014  0.15870020  1
  C  C1946  1  0.87281194  0.79287612  0.19595608  1
  C  C1947  1  0.94620874  0.80390512  0.17635774  1
  N  N1948  1  0.88805077  0.77069459  0.16837524  1
  C  C1949  1  0.94034330  0.97561951  0.22607875  1
  H  H1950  1  0.97502093  0.80505822  0.16761988  1
  H  H1951  1  0.93557618  0.76050036  0.13443502  1
  H  H1952  1  0.84199169  0.78510552  0.19985010  1
  C  C1953  1  0.93177747  0.97746350  0.07023080  1
  C  C1954  1  0.94941765  0.99837215  0.04122851  1
  H  H1955  1  0.88263703  0.83391093  0.24614803  1
  C  C1956  1  0.54729062  0.62327389  0.29908868  1
  C  C1957  1  0.58387038  0.63408894  0.28883990  1
  N  N1958  1  0.53773132  0.61673868  0.33624053  1
  C  C1959  1  0.61390998  0.63334910  0.31729607  1
  C  C1960  1  0.65466689  0.64247053  0.30741288  1
  N  N1961  1  0.67840469  0.64244305  0.34035813  1
  C  C1962  1  0.56447557  0.61725653  0.36421457  1
  C  C1963  1  0.73579227  0.66892670  0.37526355  1
  C  C1964  1  0.60254876  0.62487864  0.35634363  1
  C  C1965  1  0.69788024  0.67221135  0.27880068  1
  C  C1966  1  0.70929910  0.66408922  0.33970003  1
  H  H1967  1  0.55293270  0.60862839  0.39435666  1
  N  N1968  1  0.66288991  0.65709786  0.27199831  1
  Zn  Zn1969  1  0.69990125  0.59146457  0.38092991  1
  H  H1970  1  0.63955330  0.69800004  0.38731864  1
  H  H1971  1  0.65016561  0.70613569  0.46844627  1
  N  N1972  1  0.72168977  0.68545661  0.30855718  1
  H  H1973  1  0.54104699  0.69644215  0.32752983  1
  C  C1974  1  0.53115883  0.71117161  0.30298348  1
  H  H1975  1  0.55118222  0.66300893  0.45072585  1
  C  C1976  1  0.55259383  0.70966834  0.40620795  1
  C  C1977  1  0.53730053  0.67809491  0.42756037  1
  C  C1978  1  0.72376855  0.68296629  0.41224940  1
  H  H1979  1  0.69478177  0.69222987  0.41819672  1
  H  H1980  1  0.62419862  0.62619003  0.37953810  1
  C  C1981  1  0.68712649  0.61239679  0.43343720  1
  C  C1982  1  0.71976420  0.61083315  0.45730895  1
  N  N1983  1  0.65281080  0.62371658  0.44137713  1
  H  H1984  1  0.52309711  0.61959130  0.27716923  1
  C  C1985  1  0.65116707  0.72758814  0.44337902  1
  C  C1986  1  0.64611893  0.72384885  0.40268539  1
  H  H1987  1  0.58085663  0.71900248  0.40904956  1
  H  H1988  1  0.74321081  0.58896374  0.30650150  1
  C  C1989  1  0.55544501  0.72865072  0.27495799  1
  H  H1990  1  0.74216988  0.68885977  0.47826667  1
  H  H1991  1  0.59184863  0.64285771  0.25952734  1
  C  C1992  1  0.74717791  0.68399171  0.44604045  1
  N  N1993  1  0.53174762  0.73285739  0.38621840  1
  C  C1994  1  0.65079630  0.63591045  0.47920132  1
  H  H1995  1  0.62402835  0.64891165  0.48855879  1
  H  H1996  1  0.51030146  0.72002807  0.46002815  1
  H  H1997  1  0.74501313  0.59811231  0.44831035  1
  N  N1998  1  0.62050262  0.73784280  0.25756077  1
  C  C1999  1  0.59508867  0.73936520  0.28767045  1
  Zn  Zn2000  1  0.72519110  0.74347661  0.31691490  1
  C  C2001  1  0.50723353  0.72837213  0.49181049  1
  N  N2002  1  0.60063543  0.74874083  0.32687315  1
  C  C2003  1  0.71746266  0.62403527  0.49823225  1
  N  N2004  1  0.75481774  0.57794292  0.36400289  1
  C  C2005  1  0.76669237  0.58490138  0.32794200  1
  C  C2006  1  0.77318733  0.65642750  0.37482303  1
  H  H2007  1  0.76995483  0.55955386  0.41729016  1
  H  H2008  1  0.78178393  0.64183626  0.34680146  1
  C  C2009  1  0.78248470  0.56662615  0.38824875  1
  C  C2010  1  0.79380460  0.65849950  0.41084422  1
  H  H2011  1  0.82506268  0.65073846  0.41298542  1
  N  N2012  1  0.78117869  0.66840555  0.44620076  1
  C  C2013  1  0.82040514  0.57405444  0.38344139  1
  N  N2014  1  0.90033785  0.56332993  0.34118462  1
  H  H2015  1  0.81703020  0.59053316  0.28726684  1
  C  C2016  1  0.80688332  0.58639465  0.31928163  1
  C  C2017  1  0.93337152  0.57121426  0.32608401  1
  H  H2018  1  0.89161604  0.66825981  0.36164723  1
  Zn  Zn2019  1  0.84983834  0.65961833  0.29611410  1
  N  N2020  1  0.88797578  0.62639961  0.32176219  1
  C  C2021  1  0.92482810  0.63230369  0.31059645  1
  N  N2022  1  0.84231941  0.69153844  0.34318325  1
  N  N2023  1  0.94816977  0.60344303  0.31363930  1
  C  C2024  1  0.87876129  0.59344054  0.33662782  1
  C  C2025  1  0.83593199  0.58480253  0.34640626  1
  C  C2026  1  0.93911010  0.66876739  0.29301707  1
  C  C2027  1  0.89961581  0.60181025  0.43078360  1
  C  C2028  1  0.96963571  0.59491051  0.43047075  1
  C  C2029  1  0.93451070  0.61747119  0.43951284  1
  H  H2030  1  0.90103495  0.57599029  0.41527352  1
  C  C2031  1  0.86553263  0.61584571  0.44815109  1
  C  C2032  1  0.86905289  0.68877697  0.37120106  1
  C  C2033  1  0.95821912  0.70120282  0.37999433  1
  C  C2034  1  0.81491259  0.71604188  0.34748671  1
  N  N2035  1  0.98433751  0.70662320  0.41022744  1
  H  H2036  1  0.88971331  0.70895137  0.42970824  1
  C  C2037  1  0.86663424  0.70795247  0.40745460  1
  H  H2038  1  0.83984669  0.57170878  0.40944915  1
  H  H2039  1  0.83573233  0.60422230  0.44512300  1
  C  C2040  1  0.95620255  0.53656605  0.31476808  1
  N  N2041  1  0.86621650  0.64559705  0.46779022  1
  N  N2042  1  0.96699398  0.55971394  0.44723584  1
  C  C2043  1  0.93888225  0.73016713  0.36241737  1
  H  H2044  1  0.91532252  0.72975845  0.33979490  1
  C  C2045  1  0.83490860  0.73084791  0.41554092  1
  C  C2046  1  0.97814880  0.67710554  0.29786578  1
  C  C2047  1  0.93333084  0.65266944  0.45931780  1
  H  H2048  1  0.95664953  0.67201286  0.36837277  1
  C  C2049  1  0.89936997  0.66204258  0.47705304  1
  C  C2050  1  0.99096068  0.53700750  0.29388164  1
  C  C2051  1  0.92035562  0.70021141  0.27890854  1
  N  N2052  1  0.84161739  0.72478837  0.48523931  1
  C  C2053  1  0.81007299  0.73693059  0.38283087  1
  H  H2054  1  0.79815518  0.71943872  0.32124739  1
  C  C2055  1  0.99475688  0.71162569  0.29023513  1
  C  C2056  1  0.98759461  0.53952269  0.42066506  1
  H  H2057  1  0.88909666  0.70450091  0.27324829  1
  C  C2058  1  0.93914660  0.73262985  0.26600865  1
  N  N2059  1  0.97515361  0.73858135  0.27310561  1
  H  H2060  1  0.99597710  0.65364692  0.30749583  1
  H  H2061  1  0.79487345  0.73602205  0.26027213  1
  H  H2062  1  0.95952379  0.66820543  0.46406002  1
  C  C2063  1  0.98847267  0.74049427  0.42280597  1
  N  N2064  1  0.99306473  0.61605388  0.40651827  1
  C  C2065  1  0.93871770  0.50214142  0.31562595  1
  Zn  Zn2066  1  0.81611830  0.66778725  0.49308294  1
  H  H2067  1  0.89612831  0.68778289  0.49530076  1
  C  C2068  1  0.99981107  0.50534148  0.27142904  1
  H  H2069  1  0.89611606  0.53395256  0.47869450  1
  H  H2070  1  0.82615677  0.55000609  0.49614199  1
  H  H2071  1  0.88671958  0.60264179  0.25446589  1
  C  C2072  1  0.64954202  0.75639950  0.37913205  1
  C  C2073  1  0.63922975  0.75345530  0.33565605  1
  C  C2074  1  0.50276626  0.87853487  0.32162602  1
  H  H2075  1  0.54322715  0.85939877  0.36629913  1
  H  H2076  1  0.59875885  0.95439928  0.41519383  1
  C  C2077  1  0.65146317  0.75600256  0.27410826  1
  N  N2078  1  0.65937837  0.76004957  0.46163606  1
  N  N2079  1  0.66977557  0.75634024  0.31168950  1
  H  H2080  1  0.53640971  0.77609651  0.44336130  1
  N  N2081  1  0.67753036  0.89888120  0.41650033  1
  H  H2082  1  0.67070349  0.81132030  0.37826774  1
  H  H2083  1  0.69476090  0.86330462  0.37558633  1
  H  H2084  1  0.64675838  0.87995664  0.32463434  1
  C  C2085  1  0.67452773  0.88566265  0.37958139  1
  C  C2086  1  0.64631276  0.89537549  0.35313061  1
  C  C2087  1  0.66581890  0.78901636  0.43866868  1
  C  C2088  1  0.66397423  0.78860109  0.39753194  1
  C  C2089  1  0.55829819  0.79626259  0.44994627  1
  Zn  Zn2090  1  0.55865573  0.78153474  0.36193724  1
  N  N2091  1  0.57478860  0.80440672  0.41622377  1
  H  H2092  1  0.66966613  0.81352402  0.45766164  1
  C  C2093  1  0.60011775  0.83086877  0.41487348  1
  N  N2094  1  0.56283647  0.95675459  0.34318000  1
  C  C2095  1  0.61828869  0.84377357  0.44936761  1
  H  H2096  1  0.60679435  0.83705848  0.38313919  1
  C  C2097  1  0.62292579  0.93663002  0.40198777  1
  C  C2098  1  0.61976029  0.92346212  0.36207262  1
  C  C2099  1  0.58977092  0.93375493  0.33107896  1
  H  H2100  1  0.64215790  0.86106873  0.45115096  1
  C  C2101  1  0.53277180  0.96156263  0.31943900  1
  C  C2102  1  0.65119970  0.92380145  0.42723113  1
  N  N2103  1  0.59362279  0.92067331  0.29311890  1
  N  N2104  1  0.52857300  0.95045244  0.28220005  1
  N  N2105  1  0.52949716  0.81848574  0.32805062  1
  C  C2106  1  0.57483712  0.80742453  0.48636624  1
  H  H2107  1  0.64940929  0.96972703  0.32684823  1
  C  C2108  1  0.60527910  0.83254934  0.48717160  1
  C  C2109  1  0.50993052  0.80616457  0.29748835  1
  H  H2110  1  0.65538900  0.93103939  0.45757894  1
  H  H2111  1  0.51487728  0.77584177  0.29054051  1
  C  C2112  1  0.65361121  0.99248117  0.47870723  1
  C  C2113  1  0.69373817  0.98980035  0.47982264  1
  H  H2114  1  0.71755234  0.79797108  0.28601680  1
  C  C2115  1  0.56044431  0.92977348  0.27501805  1
  C  C2116  1  0.52634773  0.98112900  0.49114005  1
  H  H2117  1  0.74831122  0.81601025  0.33250763  1
  H  H2118  1  0.51171568  0.89868003  0.45859440  1
  C  C2119  1  0.69148118  0.81274445  0.27330667  1
  H  H2120  1  0.71107330  0.87051920  0.28220536  1
  N  N2121  1  0.66552412  0.97428247  0.26934965  1
  C  C2122  1  0.66260769  0.99010466  0.30537498  1
  H  H2123  1  0.57140066  0.99953703  0.39124409  1
  C  C2124  1  0.58515278  0.98390350  0.49732345  1
  C  C2125  1  0.52707975  0.85241671  0.33964330  1
  Zn  Zn2126  1  0.64919609  0.92385699  0.26196672  1
  C  C2127  1  0.69136727  0.85116427  0.26818885  1
  C  C2128  1  0.65996698  0.79359854  0.25651206  1
  C  C2129  1  0.62721736  0.97140205  0.49976758  1
  N  N2130  1  0.66171463  0.87069378  0.25539175  1
  H  H2131  1  0.54458779  0.85504413  0.25599832  1
  Zn  Zn2132  1  0.99971791  0.78571260  0.25496290  1
  C  C2133  1  0.83443610  0.75078663  0.45592962  1
  H  H2134  1  0.78671064  0.75635036  0.38958702  1
  H  H2135  1  0.99828024  0.88748428  0.45326091  1
  H  H2136  1  0.91198229  0.76098894  0.47550852  1
  C  C2137  1  0.77186695  0.88988034  0.46824919  1
  H  H2138  1  0.85715907  0.76041219  0.26028832  1
  H  H2139  1  0.92323834  0.75649228  0.25376347  1
  C  C2140  1  0.95690599  0.91209324  0.25769087  1
  C  C2141  1  0.88139034  0.95713952  0.38013247  1
  N  N2142  1  0.98259773  0.90032849  0.28495360  1
  H  H2143  1  0.75292027  0.90515980  0.44823243  1
  C  C2144  1  0.83086706  0.80080903  0.48762969  1
  H  H2145  1  0.81153047  0.85556972  0.32477422  1
  C  C2146  1  0.87963736  0.92334120  0.36019733  1
  N  N2147  1  0.97991586  0.83717697  0.25713474  1
  C  C2148  1  0.98983495  0.99615843  0.46218146  1
  C  C2149  1  0.93094861  0.90318477  0.40650518  1
  H  H2150  1  0.98053213  0.99887804  0.37621091  1
  C  C2151  1  0.83968925  0.80841042  0.29789300  1
  H  H2152  1  0.93324302  0.95305924  0.32393728  1
  C  C2153  1  0.81311078  0.83990377  0.49081861  1
  N  N2154  1  0.87411306  0.85516199  0.33004279  1
  H  H2155  1  0.95148218  0.95006369  0.44288313  1
  H  H2156  1  0.94745489  0.88007865  0.41967105  1
  C  C2157  1  0.86835862  0.94622434  0.49155172  1
  H  H2158  1  0.96910788  0.79914621  0.42190029  1
  H  H2159  1  0.86247963  0.97861576  0.36931535  1
  C  C2160  1  0.99150559  0.86399206  0.28231775  1
  N  N2161  1  0.82959227  0.78853368  0.44923716  1
  N  N2162  1  0.90585645  0.96501807  0.40893112  1
  N  N2163  1  0.92990189  0.83433834  0.36842492  1
  C  C2164  1  0.92399965  0.79937777  0.35480323  1
  C  C2165  1  0.94376020  0.95252393  0.26081715  1
  N  N2166  1  0.77075240  0.77260502  0.30078444  1
  C  C2167  1  0.90539780  0.85881313  0.35242777  1
  C  C2168  1  0.93336012  0.96834351  0.29720714  1
  C  C2169  1  0.93073693  0.93927462  0.42042564  1
  C  C2170  1  0.90687618  0.89659129  0.37258551  1
  C  C2171  1  0.83373785  0.77645177  0.27398833  1
  C  C2172  1  0.78807242  0.85487590  0.46232233  1
  N  N2173  1  0.89950653  0.79181943  0.32643874  1
  C  C2174  1  0.96940069  0.77198118  0.40676835  1
  C  C2175  1  0.79752261  0.76181730  0.27580549  1
  C  C2176  1  0.87654583  0.82057890  0.31715295  1
  C  C2177  1  0.77210654  0.80763435  0.31279660  1
  C  C2178  1  0.94452351  0.76791122  0.37345293  1
  H  H2179  1  0.78262554  0.83836169  0.43702860  1
  H  H2180  1  0.86234000  0.92115477  0.33352751  1
  C  C2181  1  0.80669056  0.82785989  0.31042360  1
  H  H2182  1  0.98154495  0.80516087  0.33410962  1
  Zn  Zn2183  1  0.86214532  0.81432519  0.40363359  1
  H  H2184  1  0.84990858  0.93597090  0.46837207  1
  N  N2185  1  0.78263160  0.91128340  0.49865699  1
  H  H2186  1  0.98413824  0.75785798  0.49529230  1
  C  C2187  1  0.59395400  0.60093310  0.67068671  1
  C  C2188  1  0.60905801  0.56515675  0.62406802  1
  C  C2189  1  0.62465975  0.62113632  0.61513312  1
  N  N2190  1  0.62816576  0.58748594  0.59800701  1
  Zn  Zn2191  1  0.67464454  0.57386933  0.56348412  1
  N  N2192  1  0.58605803  0.56609570  0.65827738  1
  Zn  Zn2193  1  0.53139652  0.54517234  0.65862166  1
  C  C2194  1  0.61864501  0.52367819  0.61412340  1
  N  N2195  1  0.61042017  0.62885161  0.65141537  1
  C  C2196  1  0.63572186  0.65542429  0.58979844  1
  H  H2197  1  0.68742629  0.66313035  0.62086506  1
  H  H2198  1  0.58649000  0.65095302  0.55316523  1
  C  C2199  1  0.66959802  0.67415642  0.59624915  1
  C  C2200  1  0.61294223  0.66568685  0.55858813  1
  C  C2201  1  0.62104529  0.69925842  0.53888113  1
  C  C2202  1  0.67786942  0.70581000  0.57272460  1
  C  C2203  1  0.58060529  0.61309423  0.71284162  1
  N  N2204  1  0.73038028  0.60431797  0.56393159  1
  C  C2205  1  0.70040746  0.57247549  0.69213088  1
  C  C2206  1  0.70558323  0.58315488  0.65151501  1
  H  H2207  1  0.67372340  0.56370682  0.70240474  1
  H  H2208  1  0.68135273  0.58190608  0.63116434  1
  N  N2209  1  0.65211891  0.71812050  0.54815424  1
  N  N2210  1  0.72647501  0.57355446  0.72001868  1
  H  H2211  1  0.67418110  0.64432422  0.53622086  1
  H  H2212  1  0.57851419  0.51940429  0.56614227  1
  H  H2213  1  0.55199954  0.60261810  0.60665571  1
  C  C2214  1  0.55132405  0.59464858  0.73262437  1
  H  H2215  1  0.54062682  0.56616367  0.72536622  1
  N  N2216  1  0.51194779  0.56280915  0.60891689  1
  H  H2217  1  0.70310051  0.72328204  0.57352161  1
  H  H2218  1  0.64864842  0.52366636  0.74276107  1
  C  C2219  1  0.67997223  0.63576386  0.50561570  1
  H  H2220  1  0.60355339  0.71233463  0.51596719  1
  C  C2221  1  0.60188138  0.50509708  0.58170416  1
  H  H2222  1  0.65855215  0.51494904  0.66323690  1
  N  N2223  1  0.54075774  0.73632594  0.50589299  1
  C  C2224  1  0.54152883  0.74335325  0.54555308  1
  H  H2225  1  0.61927237  0.65911969  0.71330306  1
  C  C2226  1  0.59444411  0.64725524  0.72929888  1
  H  H2227  1  0.51824844  0.67819297  0.72792788  1
  C  C2228  1  0.52826263  0.59026390  0.58763605  1
  C  C2229  1  0.51921554  0.60083631  0.54880696  1
  H  H2230  1  0.53641802  0.62226502  0.53390792  1
  H  H2231  1  0.74597859  0.52097186  0.63360664  1
  C  C2232  1  0.74715046  0.61464054  0.52792177  1
  C  C2233  1  0.74271239  0.59203018  0.63588688  1
  H  H2234  1  0.57246729  0.74562183  0.55476834  1
  C  C2235  1  0.64272847  0.50313904  0.63798793  1
  H  H2236  1  0.51636887  0.74723063  0.60435843  1
  C  C2237  1  0.51202679  0.74241060  0.57129183  1
  H  H2238  1  0.72028983  0.74394849  0.64749000  1
  C  C2239  1  0.94467113  0.50436270  0.57947533  1
  C  C2240  1  0.81161247  0.50388351  0.69574314  1
  N  N2241  1  0.79578577  0.51631763  0.66284437  1
  C  C2242  1  0.75936752  0.58812304  0.70764686  1
  C  C2243  1  0.75506257  0.59551614  0.59248892  1
  C  C2244  1  0.76783154  0.59724132  0.66795853  1
  H  H2245  1  0.79564555  0.60726372  0.65983792  1
  Zn  Zn2246  1  0.82049238  0.53974170  0.61627562  1
  N  N2247  1  0.78477356  0.61745487  0.51814499  1
  C  C2248  1  0.79991859  0.59923453  0.55061956  1
  H  H2249  1  0.87010452  0.63169026  0.57682048  1
  C  C2250  1  0.87345879  0.60866026  0.55718727  1
  C  C2251  1  0.90924247  0.59481135  0.54509458  1
  H  H2252  1  0.93627795  0.60938073  0.55751131  1
  N  N2253  1  0.91484375  0.56841274  0.51987690  1
  C  C2254  1  0.84258145  0.59284655  0.53843176  1
  N  N2255  1  0.79131058  0.58349436  0.58607405  1
  Zn  Zn2256  1  0.97212986  0.55541835  0.51144237  1
  H  H2257  1  0.77850043  0.58697391  0.73166400  1
  N  N2258  1  0.87264841  0.52528274  0.59795429  1
  H  H2259  1  0.89170675  0.56411784  0.63454466  1
  N  N2260  1  0.99391913  0.59882279  0.54642436  1
  C  C2261  1  0.84957117  0.56539672  0.50991577  1
  C  C2262  1  0.94366718  0.73604972  0.58037774  1
  C  C2263  1  0.90472760  0.73324569  0.57106557  1
  H  H2264  1  0.95704831  0.72907947  0.60921259  1
  H  H2265  1  0.88522498  0.72102200  0.59493131  1
  C  C2266  1  0.93955645  0.53373844  0.60694309  1
  C  C2267  1  0.90125645  0.54264366  0.61369211  1
  H  H2268  1  0.96205795  0.54986577  0.61949529  1
  N  N2269  1  0.97129317  0.74261844  0.55405073  1
  C  C2270  1  0.89266058  0.74159139  0.53222292  1
  C  C2271  1  0.85138848  0.74843684  0.51548486  1
  H  H2272  1  0.97702709  0.54000099  0.74505184  1
  C  C2273  1  0.88591883  0.55348473  0.50057927  1
  H  H2274  1  0.84292503  0.51229793  0.69541936  1
  C  C2275  1  0.75850578  0.51169237  0.66200510  1
  H  H2276  1  0.98065755  0.63881706  0.50502990  1
  C  C2277  1  0.99507432  0.63306562  0.53436834  1
  C  C2278  1  0.92153453  0.74961551  0.50530104  1
  C  C2279  1  0.96067249  0.74945271  0.51655988  1
  C  C2280  1  0.50346876  0.84748643  0.53645165  1
  H  H2281  1  0.55836289  0.99152445  0.63102312  1
  C  C2282  1  0.68507958  0.93983491  0.51948301  1
  H  H2283  1  0.63680835  0.95284429  0.69947476  1
  H  H2284  1  0.66379608  0.79262972  0.63402595  1
  Zn  Zn2285  1  0.65802502  0.76643449  0.52234131  1
  N  N2286  1  0.65426134  0.82534751  0.53521894  1
  C  C2287  1  0.70020241  0.81840916  0.58788846  1
  C  C2288  1  0.66260641  0.83851679  0.57413421  1
  C  C2289  1  0.62354172  0.84438722  0.52621017  1
  N  N2290  1  0.60597609  0.87302518  0.54706200  1
  C  C2291  1  0.62133105  0.87823924  0.58535877  1
  H  H2292  1  0.56957223  0.94127590  0.57500955  1
  N  N2293  1  0.59558114  0.97065859  0.66772188  1
  C  C2294  1  0.57728034  0.96771297  0.63288667  1
  C  C2295  1  0.63256809  0.91841302  0.64556021  1
  H  H2296  1  0.65700019  0.90001579  0.65156447  1
  C  C2297  1  0.62268585  0.94577390  0.67336963  1
  C  C2298  1  0.58461933  0.94066913  0.60366954  1
  N  N2299  1  0.65091072  0.86228564  0.60028419  1
  Zn  Zn2300  1  0.56157905  0.90319554  0.52034068  1
  C  C2301  1  0.61153318  0.91250921  0.61014353  1
  C  C2302  1  0.69308979  0.79376074  0.61894552  1
  C  C2303  1  0.64557444  0.94266470  0.52119074  1
  H  H2304  1  0.56385599  0.79533518  0.51392882  1
  H  H2305  1  0.70233585  0.91903386  0.53580206  1
  H  H2306  1  0.62891510  0.92548564  0.54087294  1
  H  H2307  1  0.52039966  0.84766481  0.56469583  1
  C  C2308  1  0.72131449  0.76701685  0.62600926  1
  C  C2309  1  0.73313427  0.81679662  0.56424914  1
  N  N2310  1  0.51659232  0.87209353  0.51138598  1
  H  H2311  1  0.74018011  0.83739763  0.54247391  1
  N  N2312  1  0.70822773  0.96304199  0.50158079  1
  N  N2313  1  0.55685276  0.95987398  0.50353890  1
  Zn  Zn2314  1  0.76607010  0.96237961  0.50490442  1
  C  C2315  1  0.88533989  0.99543069  0.53164600  1
  H  H2316  1  0.84301208  0.85327234  0.54448408  1
  N  N2317  1  0.84296504  0.78342578  0.52101448  1
  N  N2318  1  0.92868824  0.94487958  0.52273581  1
  Zn  Zn2319  1  0.98238313  0.92712315  0.52255243  1
  C  C2320  1  0.76017764  0.79189377  0.57891044  1
  C  C2321  1  0.80691826  0.89806123  0.52526579  1
  H  H2322  1  0.94565261  0.98820057  0.55325415  1
  C  C2323  1  0.82105633  0.86116880  0.52422923  1
  C  C2324  1  0.91983512  0.97658206  0.53928033  1
  H  H2325  1  0.81543255  0.91971793  0.54581205  1
  H  H2326  1  0.78710341  0.78821156  0.56125566  1
  N  N2327  1  0.75358171  0.76771359  0.60663837  1
  C  C2328  1  0.86038849  0.98221893  0.50225794  1
  C  C2329  1  0.89896528  0.92685307  0.50878410  1
  H  H2330  1  0.90036250  0.89686128  0.50071816  1
  N  N2331  1  0.52717878  0.52985039  0.90324298  1
  Zn  Zn2332  1  0.54233960  0.54418078  0.95703103  1
  N  N2333  1  0.66676089  0.54069550  0.79757814  1
  H  H2334  1  0.68161107  0.55851992  0.84905901  1
  C  C2335  1  0.65741327  0.54461097  0.83565353  1
  C  C2336  1  0.63050918  0.52166296  0.85411962  1
  H  H2337  1  0.62575971  0.51936928  0.88609084  1
  Zn  Zn2338  1  0.71592851  0.55381970  0.77396723  1
  N  N2339  1  0.59408792  0.57317175  0.96642444  1
  N  N2340  1  0.54392303  0.64970817  0.77358457  1
  H  H2341  1  0.67508236  0.51414917  0.90029205  1
  C  C2342  1  0.70398566  0.52559009  0.89759863  1
  H  H2343  1  0.68865193  0.56490516  0.94736411  1
  C  C2344  1  0.70924171  0.55621585  0.92340005  1
  C  C2345  1  0.63442146  0.62547709  0.96227112  1
  H  H2346  1  0.63809465  0.65341518  0.94984432  1
  C  C2347  1  0.60472232  0.60389743  0.94890123  1
  H  H2348  1  0.58129813  0.61015531  0.92587959  1
  C  C2349  1  0.72814112  0.51468953  0.86651229  1
  C  C2350  1  0.54819161  0.54317093  0.87384136  1
  H  H2351  1  0.57108684  0.55835862  0.88680051  1
  H  H2352  1  0.55954007  0.54911560  0.81025480  1
  C  C2353  1  0.54067854  0.53687950  0.83292421  1
  C  C2354  1  0.64079989  0.52479852  0.77459047  1
  C  C2355  1  0.51202927  0.61778302  0.98329153  1
  C  C2356  1  0.66094801  0.61410151  0.99164573  1
  H  H2357  1  0.57838245  0.69653531  0.76664568  1
  C  C2358  1  0.51242598  0.51258607  0.82229820  1
  C  C2359  1  0.61670785  0.56058816  0.99488824  1
  C  C2360  1  0.51284219  0.63980291  0.94322943  1
  N  N2361  1  0.50421031  0.58038023  0.97984113  1
  C  C2362  1  0.57347811  0.66682174  0.75734677  1
  N  N2363  1  0.50652624  0.66787165  0.86513689  1
  C  C2364  1  0.51288549  0.61605843  0.90997386  1
  H  H2365  1  0.51022508  0.58559764  0.91477823  1
  C  C2366  1  0.51009634  0.67884545  0.93541412  1
  N  N2367  1  0.74113131  0.57415054  0.92388273  1
  C  C2368  1  0.50515566  0.69001083  0.89586327  1
  H  H2369  1  0.50787539  0.69769862  0.96152339  1
  H  H2370  1  0.50864144  0.61424044  0.84545978  1
  C  C2371  1  0.53683403  0.61546841  0.76461958  1
  C  C2372  1  0.50970899  0.63190516  0.87201642  1
  H  H2373  1  0.50309149  0.71951128  0.88357960  1
  Zn  Zn2374  1  0.50886291  0.68697184  0.80853399  1
  C  C2375  1  0.60940807  0.50266867  0.78805767  1
  N  N2376  1  0.73672865  0.50259041  0.79914329  1
  C  C2377  1  0.50458122  0.50715830  0.77634815  1
  H  H2378  1  0.57303681  0.74412632  0.96655121  1
  H  H2379  1  0.51197221  0.60910976  0.78281035  1
  C  C2380  1  0.76158361  0.53535047  0.86896071  1
  Zn  Zn2381  1  0.75503424  0.61364088  0.95613886  1
  H  H2382  1  0.78221219  0.53463102  0.84574090  1
  C  C2383  1  0.76867771  0.56267955  0.89841720  1
  H  H2384  1  0.79518115  0.57985527  0.89879989  1
  H  H2385  1  0.62235941  0.99835242  0.78244389  1
  C  C2386  1  0.54814834  0.75759717  0.97946919  1
  C  C2387  1  0.53393247  0.79171200  0.96501170  1
  H  H2388  1  0.54915902  0.80659968  0.94100810  1
  N  N2389  1  0.62227172  0.97477191  0.94125556  1
  H  H2390  1  0.54379238  0.93337027  0.97961860  1
  H  H2391  1  0.61202555  0.92905126  0.97331026  1
  C  C2392  1  0.54112232  0.99568172  0.99025631  1
  C  C2393  1  0.61852084  0.95829958  0.97571337  1
  C  C2394  1  0.53374000  0.95737710  0.99681620  1
  H  H2395  1  0.94493151  0.95708709  0.90214098  1
  C  C2396  1  0.86260714  0.99087656  0.89196143  1
  N  N2397  1  0.88852202  0.96523241  0.89732900  1
  H  H2398  1  0.83630565  0.97461568  0.88288809  1
  C  C2399  1  0.92361543  0.97833900  0.90129447  1
