# generated using pymatgen
data_CuH17C26O5
_symmetry_space_group_name_H-M   'P 1'
_cell_length_a   15.05705180
_cell_length_b   19.46801430
_cell_length_c   32.49913503
_cell_angle_alpha   90.00000000
_cell_angle_beta   90.00000000
_cell_angle_gamma   90.00000000
_symmetry_Int_Tables_number   1
_chemical_formula_structural   CuH17C26O5
_chemical_formula_sum   'Cu16 H272 C416 O80'
_cell_volume   9526.50069129
_cell_formula_units_Z   16
loop_
 _symmetry_equiv_pos_site_id
 _symmetry_equiv_pos_as_xyz
  1  'x, y, z'
loop_
 _atom_site_type_symbol
 _atom_site_label
 _atom_site_symmetry_multiplicity
 _atom_site_fract_x
 _atom_site_fract_y
 _atom_site_fract_z
 _atom_site_occupancy
  H  H0  1  0.28235371  0.41033173  0.06720300  1
  H  H1  1  0.35462797  0.21271188  0.19188463  1
  O  O2  1  0.01880183  0.32875106  0.11285574  1
  C  C3  1  0.49201731  0.18301209  0.14541988  1
  C  C4  1  0.11194387  0.16689137  0.03965745  1
  C  C5  1  0.06957843  0.10572431  0.24547579  1
  C  C6  1  0.20999093  0.26677702  0.19122138  1
  C  C7  1  0.49639508  0.32661379  0.24256355  1
  C  C8  1  0.24001585  0.21339694  0.11500683  1
  C  C9  1  0.07489295  0.33439665  0.03378750  1
  H  H10  1  0.48781006  0.38508561  0.05863196  1
  C  C11  1  0.30056948  0.32121836  0.13940986  1
  C  C12  1  0.19092759  0.05885000  0.06105760  1
  C  C13  1  0.41883003  0.40687258  0.15677736  1
  H  H14  1  0.31166352  0.28759773  0.07371955  1
  H  H15  1  0.18495573  0.26071776  0.22236228  1
  C  C16  1  0.20593530  0.21504045  0.15757089  1
  C  C17  1  0.49515400  0.23348291  0.17750589  1
  H  H18  1  0.19259347  0.00695322  0.07379176  1
  C  C19  1  0.33522169  0.42400574  0.08981780  1
  C  C20  1  0.35266602  0.38362181  0.12666026  1
  H  H21  1  0.02503398  0.02337289  0.20555194  1
  C  C22  1  0.26139719  0.15267058  0.02535597  1
  H  H23  1  0.27282261  0.36765535  0.20143259  1
  H  H24  1  0.22202633  0.17423783  0.09030454  1
  H  H25  1  0.11730924  0.35804001  0.05963364  1
  H  H26  1  0.14109507  0.09406671  0.23903237  1
  H  H27  1  0.04889638  0.19531530  0.03642193  1
  C  C28  1  0.39032126  0.48137232  0.08608054  1
  C  C29  1  0.47830587  0.46124995  0.14922997  1
  C  C30  1  0.28696944  0.27587745  0.10552304  1
  C  C31  1  0.41373282  0.29092294  0.23168706  1
  H  H32  1  0.42368408  0.37498315  0.18398882  1
  C  C33  1  0.26282916  0.32289548  0.18018502  1
  Cu  Cu34  1  0.43792530  0.04765471  0.13054475  1
  C  C35  1  0.27339214  0.08717915  0.04762826  1
  C  C36  1  0.41491105  0.24098454  0.20012866  1
  C  C37  1  0.11524991  0.10292747  0.06078126  1
  C  C38  1  0.18681293  0.19988680  0.02135313  1
  O  O39  1  0.42811069  0.13931495  0.14256865  1
  H  H40  1  0.33641436  0.05984712  0.04924954  1
  C  C41  1  0.00591495  0.06366494  0.22722213  1
  C  C42  1  0.03723860  0.07986373  0.08626106  1
  H  H43  1  0.12892732  0.49201493  0.12306628  1
  C  C44  1  0.23235931  0.49623543  0.00767896  1
  C  C45  1  0.04151221  0.00841990  0.09252514  1
  H  H46  1  0.35004941  0.30210951  0.24825883  1
  H  H47  1  0.09917641  0.01863974  0.00663185  1
  H  H48  1  0.18095627  0.24811286  0.00040064  1
  H  H49  1  0.49271778  0.26317127  0.01106049  1
  C  C50  1  0.14805986  0.33245714  0.30751029  1
  C  C51  1  0.43848035  0.34737920  0.31381754  1
  C  C52  1  0.44807178  0.37511453  0.35293553  1
  C  C53  1  0.24926326  0.34662324  0.36581444  1
  H  H54  1  0.31851671  0.22649836  0.44030919  1
  C  C55  1  0.11044644  0.21552443  0.28902727  1
  O  O56  1  0.27968137  0.31755257  0.39766197  1
  C  C57  1  0.23364611  0.23256131  0.33670026  1
  Cu  Cu58  1  0.19468174  0.32562956  0.43478871  1
  H  H59  1  0.14195427  0.38765960  0.30820135  1
  C  C60  1  0.09416513  0.28610779  0.28686486  1
  H  H61  1  0.19238019  0.14188806  0.45059118  1
  C  C62  1  0.21206817  0.17903755  0.47419892  1
  Cu  Cu63  1  0.12948202  0.00249015  0.48098198  1
  C  C64  1  0.43908009  0.30065170  0.46549356  1
  H  H65  1  0.24305391  0.42876462  0.27644267  1
  C  C66  1  0.47124613  0.23550266  0.48020564  1
  C  C67  1  0.27670193  0.22998646  0.46761446  1
  C  C68  1  0.35308016  0.40497055  0.48042087  1
  Cu  Cu69  1  0.18077735  0.44183872  0.40470581  1
  C  C70  1  0.20986038  0.30277116  0.33482545  1
  H  H71  1  0.28204540  0.21336740  0.35952725  1
  O  O72  1  0.10279742  0.34126053  0.47089138  1
  C  C73  1  0.47614853  0.09851734  0.48869913  1
  C  C74  1  0.40917190  0.44720445  0.45652713  1
  H  H75  1  0.40914711  0.35209548  0.37839371  1
  C  C76  1  0.47431696  0.41228841  0.43387254  1
  C  C77  1  0.18378262  0.18962128  0.31168907  1
  H  H78  1  0.38785150  0.30818369  0.30934290  1
  C  C79  1  0.36081809  0.33328856  0.48404424  1
  O  O80  1  0.24475117  0.41037695  0.36346608  1
  H  H81  1  0.03719988  0.30834431  0.27004478  1
  H  H82  1  0.19390820  0.13286373  0.31267501  1
  C  C83  1  0.24292401  0.48577353  0.27226220  1
  C  C84  1  0.04757406  0.16163635  0.27197081  1
  C  C85  1  0.49169028  0.34067190  0.43509738  1
  O  O86  1  0.07996750  0.09062575  0.49052683  1
  C  C87  1  0.05978979  0.39737906  0.47130775  1
  H  H88  1  0.30558262  0.49324297  0.25469318  1
  H  H89  1  0.41822961  0.12882109  0.49763622  1
  H  H90  1  0.29800575  0.42879440  0.49805447  1
  C  C91  1  0.29518365  0.28020349  0.49827401  1
  C  C92  1  0.29031758  0.46319932  0.68152508  1
  C  C93  1  0.21216268  0.33144836  0.71342182  1
  H  H94  1  0.23981114  0.47889405  0.57809571  1
  C  C95  1  0.30076281  0.20024235  0.65810875  1
  O  O96  1  0.27822300  0.10816296  0.56583388  1
  H  H97  1  0.21974310  0.45938175  0.69170858  1
  C  C98  1  0.15710934  0.43703313  0.52698046  1
  O  O99  1  0.17595412  0.13618881  0.61081695  1
  H  H100  1  0.13661457  0.23444913  0.57039612  1
  C  C101  1  0.43945545  0.40663042  0.68405621  1
  C  C102  1  0.46091335  0.20192064  0.67733685  1
  C  C103  1  0.04518121  0.27344726  0.69443026  1
  C  C104  1  0.48345287  0.15731512  0.64507685  1
  H  H105  1  0.35305649  0.25385528  0.70789684  1
  C  C106  1  0.16451738  0.18266228  0.51163497  1
  C  C107  1  0.16939493  0.35595392  0.67766330  1
  H  H108  1  0.43261252  0.01140830  0.52562351  1
  C  C109  1  0.08323652  0.32907546  0.66982130  1
  H  H110  1  0.35462645  0.04043838  0.73863049  1
  H  H111  1  0.43557822  0.10115435  0.59218556  1
  C  C112  1  0.18099497  0.48436040  0.55744970  1
  C  C113  1  0.37151715  0.22238077  0.68220699  1
  H  H114  1  0.31753895  0.07497409  0.68957572  1
  H  H115  1  0.19725531  0.38673130  0.65433104  1
  C  C116  1  0.09007333  0.13638693  0.51878242  1
  C  C117  1  0.48351202  0.03203421  0.50247118  1
  C  C118  1  0.41682011  0.13471891  0.61771749  1
  C  C119  1  0.34803823  0.41071312  0.69555783  1
  C  C120  1  0.08531403  0.25759162  0.73218559  1
  H  H121  1  0.19685252  0.38893815  0.52520387  1
  H  H122  1  0.11835897  0.38851230  0.59313629  1
  O  O123  1  0.04603205  0.13749564  0.55118646  1
  Cu  Cu124  1  0.07933106  0.07728009  0.59673011  1
  C  C125  1  0.04889257  0.38523292  0.60170658  1
  C  C126  1  0.25600247  0.13538561  0.59691019  1
  H  H127  1  0.41018917  0.11527818  0.71897903  1
  C  C128  1  0.18034393  0.23197786  0.54359160  1
  H  H129  1  0.23131743  0.21184561  0.66217557  1
  H  H130  1  0.26519571  0.31747968  0.56048125  1
  C  C131  1  0.33026828  0.16087905  0.62480698  1
  C  C132  1  0.24536935  0.28066807  0.53676753  1
  C  C133  1  0.34067884  0.09035127  0.72197957  1
  C  C134  1  0.30083225  0.35837678  0.72361258  1
  H  H135  1  0.25666417  0.18466610  0.73025052  1
  C  C136  1  0.01677015  0.35434120  0.63927797  1
  H  H137  1  0.43714745  0.25801266  0.74966161  1
  H  H138  1  0.09456056  0.46776732  0.72885475  1
  C  C139  1  0.08398200  0.44924540  0.50096944  1
  C  C140  1  0.06396776  0.42552989  0.74822252  1
  H  H141  1  0.44730120  0.21335230  0.50912956  1
  C  C142  1  0.47439560  0.45663183  0.65715460  1
  H  H143  1  0.47987774  0.36101876  0.69237713  1
  H  H144  1  0.00407662  0.42605237  0.54289235  1
  C  C145  1  0.17175071  0.28192567  0.74301084  1
  C  C146  1  0.27274707  0.13422088  0.74602040  1
  C  C147  1  0.40162951  0.20272029  0.97249653  1
  C  C148  1  0.16707205  0.20993425  0.80319427  1
  C  C149  1  0.06723052  0.28555368  0.91774558  1
  C  C150  1  0.10955898  0.39770279  0.77864342  1
  C  C151  1  0.04469179  0.13277595  0.79834460  1
  C  C152  1  0.13118759  0.24113383  0.83928287  1
  C  C153  1  0.30711618  0.28723086  0.78920558  1
  C  C154  1  0.00021285  0.16378767  0.83130285  1
  H  H155  1  0.25379518  0.18584894  0.86855744  1
  C  C156  1  0.43707378  0.30224143  0.83748678  1
  C  C157  1  0.21516953  0.08447892  0.86737360  1
  C  C158  1  0.39733033  0.32250757  0.97159527  1
  C  C159  1  0.12930054  0.14929691  0.78348219  1
  C  C160  1  0.34294374  0.33315288  0.76016980  1
  H  H161  1  0.22218037  0.33129834  0.84115142  1
  H  H162  1  0.09837629  0.04079348  0.93162774  1
  H  H163  1  0.08294918  0.35744997  0.79832070  1
  H  H164  1  0.32645028  0.06725298  0.98187407  1
  C  C165  1  0.46313965  0.00774482  0.84254335  1
  H  H166  1  0.42956352  0.15660797  0.98755374  1
  H  H167  1  0.40548756  0.36105501  0.76926172  1
  O  O168  1  0.34404921  0.26696164  0.82400070  1
  C  C169  1  0.30022180  0.13747675  0.92673172  1
  H  H170  1  0.15343818  0.37364775  0.90873481  1
  H  H171  1  0.24058369  0.26410984  0.90845386  1
  H  H172  1  0.17106324  0.09129514  0.84001537  1
  C  C173  1  0.30418726  0.07329838  0.94821908  1
  H  H174  1  0.42974668  0.30760064  0.90466241  1
  C  C175  1  0.16456010  0.30423476  0.85591977  1
  C  C176  1  0.13090499  0.32607271  0.89435248  1
  H  H177  1  0.18084438  0.41348305  0.78128187  1
  C  C178  1  0.25502886  0.13997905  0.88812573  1
  C  C179  1  0.04155433  0.29817076  0.96254499  1
  C  C180  1  0.03539108  0.01876195  0.98938611  1
  C  C181  1  0.47082470  0.28258233  0.88127718  1
  O  O182  1  0.44687621  0.03537897  0.87730844  1
  H  H183  1  0.29234595  0.14532065  0.77793896  1
  C  C184  1  0.19907584  0.47581905  0.89140933  1
  C  C185  1  0.29590730  0.26958375  0.93105932  1
  C  C186  1  0.21935021  0.02081218  0.88987229  1
  C  C187  1  0.32850043  0.20629255  0.94591369  1
  H  H188  1  0.04803250  0.22275519  0.75219841  1
  O  O189  1  0.24419019  0.47026685  0.86172845  1
  H  H190  1  0.43354416  0.35878421  0.82990218  1
  C  C191  1  0.32295103  0.33554963  0.94630009  1
  C  C192  1  0.22024062  0.26014613  0.77861707  1
  O  O193  1  0.17088582  0.11097521  0.75605960  1
  H  H194  1  0.30773224  0.38395847  0.93279498  1
  C  C195  1  0.19158242  0.48979824  0.96885230  1
  H  H196  1  0.00969296  0.08968617  0.78385806  1
  C  C197  1  0.04706803  0.21302460  0.85843003  1
  H  H198  1  0.11905190  0.48942353  0.96357431  1
  H  H199  1  0.15656841  0.36256511  0.98224303  1
  C  C200  1  0.01614215  0.23345331  0.89746504  1
  C  C201  1  0.04650941  0.00247941  0.94261241  1
  C  C202  1  0.09639144  0.33480672  0.99137032  1
  C  C203  1  0.44564080  0.26508633  0.98516460  1
  H  H204  1  0.37864154  0.48894450  0.90484300  1
  H  H205  1  0.45479447  0.22407700  0.88546694  1
  C  C206  1  0.24259461  0.48541154  0.93313173  1
  H  H207  1  0.01484156  0.42277923  0.83676343  1
  H  H208  1  0.01000086  0.07031342  0.99235102  1
  H  H209  1  0.48057887  0.27971988  0.81479242  1
  O  O210  1  0.11262769  0.47626734  0.88947284  1
  C  C211  1  0.26200660  0.01716329  0.93024295  1
  C  C212  1  0.33603917  0.49427282  0.93376295  1
  C  C213  1  0.08210782  0.80479213  0.04176303  1
  C  C214  1  0.07344016  0.64462968  0.22731255  1
  O  O215  1  0.19897957  0.68481986  0.18761581  1
  C  C216  1  0.03645065  0.84896481  0.06772482  1
  C  C217  1  0.34733626  0.59483872  0.21516630  1
  C  C218  1  0.14813468  0.68953304  0.22018676  1
  C  C219  1  0.32602742  0.51042351  0.00988837  1
  C  C220  1  0.15021153  0.75700561  0.10190866  1
  H  H221  1  0.19287657  0.71565421  0.11599649  1
  C  C222  1  0.10356143  0.79807166  0.13080306  1
  H  H223  1  0.11742981  0.79259007  0.16390693  1
  C  C224  1  0.37655514  0.92099868  0.11578792  1
  C  C225  1  0.01036193  0.53807621  0.06973251  1
  C  C226  1  0.02711822  0.58565255  0.03722558  1
  H  H227  1  0.25331021  0.78156852  0.19189953  1
  H  H228  1  0.32195888  0.71745752  0.21779360  1
  C  C229  1  0.13665351  0.75541446  0.06010642  1
  C  C230  1  0.41929792  0.58729031  0.04452349  1
  O  O231  1  0.32950146  0.89527309  0.14064738  1
  C  C232  1  0.28746184  0.73029802  0.18817856  1
  C  C233  1  0.46113039  0.50416921  0.11442244  1
  C  C234  1  0.35511231  0.92170130  0.07161313  1
  H  H235  1  0.10049354  0.98046337  0.08047216  1
  C  C236  1  0.38365538  0.95999682  0.00324097  1
  H  H237  1  0.27532767  0.58289312  0.21602986  1
  H  H238  1  0.18947166  0.50072991  0.03516251  1
  H  H239  1  0.23102306  0.86416497  0.08347716  1
  O  O240  1  0.21850533  0.65325670  0.04719902  1
  C  C241  1  0.37979282  0.52311244  0.04851799  1
  C  C242  1  0.08455504  0.52947600  0.13881432  1
  C  C243  1  0.09894750  0.54026686  0.18061589  1
  C  C244  1  0.41072997  0.95644217  0.04325778  1
  C  C245  1  0.47820366  0.61418225  0.07323861  1
  C  C246  1  0.27538906  0.88920479  0.06057573  1
  C  C247  1  0.39591179  0.59168081  0.17942615  1
  O  O248  1  0.15793313  0.50059602  0.20280201  1
  C  C249  1  0.02373645  0.56301309  0.11320251  1
  H  H250  1  0.35866213  0.57545466  0.15107983  1
  C  C251  1  0.24418904  0.90294427  0.02131609  1
  H  H252  1  0.41100211  0.61611786  0.01699431  1
  H  H253  1  0.41557843  0.70142901  0.16454205  1
  H  H254  1  0.32856852  0.70100132  0.12529482  1
  C  C255  1  0.35370630  0.72898980  0.15246880  1
  H  H256  1  0.36588514  0.78311184  0.14231576  1
  O  O257  1  0.44730178  0.95923440  0.12695808  1
  C  C258  1  0.49794411  0.57110866  0.10708957  1
  C  C259  1  0.04992537  0.85076557  0.11142878  1
  H  H260  1  0.18235919  0.87951139  0.01006445  1
  C  C261  1  0.04676008  0.59927830  0.19182672  1
  H  H262  1  0.06047930  0.63239925  0.04333629  1
  H  H263  1  0.47440498  0.98126344  0.05192727  1
  H  H264  1  0.06849639  0.80592515  0.00825361  1
  H  H265  1  0.17327042  0.57303792  0.24824019  1
  C  C266  1  0.49344567  0.59852432  0.18046530  1
  C  C267  1  0.17207633  0.69637323  0.03225912  1
  C  C268  1  0.16432081  0.51422715  0.24475151  1
  C  C269  1  0.02041914  0.63771704  0.26318995  1
  C  C270  1  0.10432197  0.74214859  0.28774463  1
  O  O271  1  0.13353484  0.98476891  0.42198432  1
  H  H272  1  0.30466906  0.85028803  0.37575300  1
  H  H273  1  0.44963720  0.82832846  0.47421165  1
  C  C274  1  0.12631720  0.80333900  0.31455440  1
  H  H275  1  0.26771973  0.76959826  0.32071696  1
  C  C276  1  0.39605657  0.60499427  0.25388925  1
  C  C277  1  0.16936193  0.89602049  0.37516121  1
  C  C278  1  0.03493725  0.68940084  0.29530644  1
  C  C279  1  0.35044576  0.77372123  0.43925144  1
  C  C280  1  0.19181044  0.94372500  0.40883122  1
  O  O281  1  0.18302564  0.53100165  0.42057937  1
  C  C282  1  0.23800288  0.84938802  0.36172279  1
  C  C283  1  0.21473674  0.80197218  0.33228264  1
  H  H284  1  0.44841815  0.64231392  0.49052123  1
  C  C285  1  0.22024337  0.63789865  0.33138948  1
  C  C286  1  0.35538592  0.59815761  0.29739695  1
  H  H287  1  0.15715744  0.66496831  0.33534719  1
  C  C288  1  0.08418868  0.89708974  0.35937231  1
  O  O289  1  0.26838955  0.93782031  0.42491218  1
  C  C290  1  0.17446706  0.58624871  0.39748231  1
  O  O291  1  0.39275016  0.74306470  0.37256659  1
  C  C292  1  0.31588602  0.54964553  0.36365442  1
  O  O293  1  0.11053731  0.62183888  0.40034573  1
  H  H294  1  0.43455487  0.51952140  0.32967916  1
  C  C295  1  0.27869192  0.64030854  0.29743448  1
  C  C296  1  0.40774051  0.77891337  0.40176572  1
  C  C297  1  0.24137755  0.59274679  0.36343136  1
  C  C298  1  0.37632727  0.55520635  0.33199610  1
  C  C299  1  0.26523247  0.74654265  0.43853302  1
  H  H300  1  0.23576058  0.72580989  0.41000722  1
  H  H301  1  0.27811321  0.55891151  0.47704915  1
  H  H302  1  0.26067567  0.66584650  0.26903684  1
  C  C303  1  0.05998526  0.84702826  0.33069631  1
  H  H304  1  0.00947756  0.71623369  0.35900065  1
  C  C305  1  0.21361306  0.74223772  0.47388594  1
  Cu  Cu306  1  0.28025488  0.93873031  0.48061263  1
  C  C307  1  0.48575788  0.61935748  0.25861100  1
  H  H308  1  0.32335293  0.51724375  0.39386435  1
  H  H309  1  0.14969881  0.71614364  0.47271518  1
  C  C310  1  0.38435261  0.80527540  0.47497626  1
  H  H311  1  0.34809531  0.67151383  0.46761363  1
  C  C312  1  0.34978927  0.55776803  0.48364237  1
  O  O313  1  0.47711618  0.81981435  0.40369082  1
  O  O314  1  0.40255521  0.51815250  0.45271533  1
  H  H315  1  0.03421901  0.93220577  0.37134232  1
  H  H316  1  0.24488846  0.50513839  0.30318062  1
  C  C317  1  0.37458531  0.63430465  0.49062648  1
  C  C318  1  0.15699597  0.73683514  0.25402355  1
  H  H319  1  0.09453948  0.50279505  0.25589518  1
  H  H320  1  0.20839542  0.77941573  0.25259879  1
  C  C321  1  0.06245784  0.56131418  0.53199184  1
  C  C322  1  0.16808431  0.66348845  0.59663275  1
  C  C323  1  0.12860166  0.54382359  0.56321211  1
  C  C324  1  0.12358315  0.56304641  0.63905616  1
  C  C325  1  0.33320808  0.80503846  0.51093855  1
  H  H326  1  0.34978510  0.83843021  0.53609290  1
  H  H327  1  0.05757981  0.75625650  0.65090994  1
  C  C328  1  0.18268241  0.68853431  0.55706534  1
  C  C329  1  0.19882838  0.94875952  0.59719886  1
  O  O330  1  0.14069571  0.94553268  0.52885907  1
  C  C331  1  0.14251920  0.59017570  0.59955717  1
  C  C332  1  0.13868764  0.77205870  0.72111662  1
  H  H333  1  0.39781611  0.85745305  0.74042841  1
  C  C334  1  0.25314452  0.95486672  0.66503997  1
  H  H335  1  0.27336215  0.59408204  0.69349258  1
  C  C336  1  0.19120598  0.71482835  0.70986770  1
  H  H337  1  0.25714121  0.85116309  0.58647888  1
  O  O338  1  0.05802288  0.79427900  0.70751243  1
  O  O339  1  0.28406107  0.94898123  0.53544026  1
  C  C340  1  0.11040314  0.94165381  0.61282229  1
  C  C341  1  0.21800810  0.75662803  0.55489540  1
  C  C342  1  0.18212158  0.70436335  0.63516543  1
  H  H343  1  0.28693964  0.55534174  0.64374962  1
  C  C344  1  0.22246419  0.77182860  0.63159908  1
  H  H345  1  0.12963276  0.60335286  0.73335947  1
  H  H346  1  0.18191278  0.65566932  0.52820594  1
  O  O347  1  0.11398113  0.56819278  0.71257813  1
  H  H348  1  0.03063507  0.91808795  0.66508251  1
  H  H349  1  0.29865012  0.95778836  0.69103585  1
  C  C350  1  0.21003712  0.94745895  0.55247031  1
  C  C351  1  0.16227058  0.67107733  0.67378673  1
  H  H352  1  0.23396687  0.80561562  0.65855398  1
  C  C353  1  0.25197286  0.76677342  0.51127798  1
  C  C354  1  0.13095436  0.60242099  0.67531653  1
  C  C355  1  0.23004040  0.79866741  0.59123384  1
  H  H356  1  0.02105242  0.69863258  0.68977386  1
  C  C357  1  0.03964147  0.95307873  0.73881334  1
  C  C358  1  0.27438969  0.94799343  0.62484410  1
  H  H359  1  0.26638146  0.96054583  0.74566196  1
  C  C360  1  0.09578255  0.93611083  0.65442276  1
  C  C361  1  0.31116597  0.62930030  0.71299376  1
  H  H362  1  0.34321059  0.94966811  0.61323590  1
  H  H363  1  0.36122613  0.52546597  0.51247965  1
  C  C364  1  0.27317096  0.69203394  0.72718006  1
  C  C365  1  0.13047665  0.95758863  0.72642975  1
  C  C366  1  0.16203302  0.95023771  0.68348084  1
  C  C367  1  0.39549961  0.61323829  0.72758217  1
  H  H368  1  0.35352824  0.65040087  0.52397834  1
  H  H369  1  0.09794420  0.50754025  0.64173113  1
  H  H370  1  0.05679170  0.93728537  0.58914764  1
  C  C371  1  0.41279821  0.50708813  0.64420170  1
  C  C372  1  0.03325729  0.51232044  0.50468527  1
  H  H373  1  0.43360925  0.57010925  0.71825133  1
  H  H374  1  0.02489029  0.60797245  0.53960158  1
  C  C375  1  0.00829335  0.74867154  0.67630764  1
  O  O376  1  0.38814649  0.61618333  0.60573000  1
  H  H377  1  0.43037766  0.65059715  0.59631777  1
  C  C378  1  0.44839175  0.56431595  0.61874485  1
  C  C379  1  0.32398270  0.51299433  0.65509994  1
  H  H380  1  0.35439398  0.63610248  0.86660715  1
  C  C381  1  0.38298700  0.87808868  0.77075709  1
  C  C382  1  0.46875916  0.63824476  0.90851057  1
  H  H383  1  0.07991786  0.95034874  0.94092856  1
  H  H384  1  0.03224059  0.87601122  0.83975484  1
  C  C385  1  0.00610170  0.56830089  0.99759791  1
  C  C386  1  0.31574132  0.84377227  0.79529700  1
  H  H387  1  0.49069803  0.95770112  0.77261185  1
  C  C388  1  0.45750979  0.55419330  0.85464665  1
  O  O389  1  0.45890373  0.72876796  0.95809895  1
  O  O390  1  0.02670759  0.63560513  0.78612460  1
  C  C391  1  0.26491813  0.79547952  0.76779685  1
  C  C392  1  0.01734500  0.96633891  0.78003589  1
  O  O393  1  0.11538470  0.83685444  0.88022578  1
  H  H394  1  0.25940495  0.82874439  0.85754574  1
  C  C395  1  0.30438886  0.86047188  0.83810040  1
  O  O396  1  0.34360018  0.70973056  0.91808081  1
  H  H397  1  0.02278099  0.60616077  0.97202846  1
  Cu  Cu398  1  0.04418050  0.55355075  0.87237422  1
  C  C399  1  0.40600945  0.71965503  0.77143756  1
  H  H400  1  0.00362414  0.79530933  0.79043721  1
  H  H401  1  0.42557301  0.53769143  0.82676447  1
  C  C402  1  0.29639553  0.93930305  0.99212793  1
  H  H403  1  0.44822001  0.52072045  0.97164108  1
  C  C404  1  0.16353943  0.89377057  0.89505288  1
  H  H405  1  0.22629716  0.84327268  0.94487577  1
  H  H406  1  0.44348436  0.75572994  0.79082349  1
  C  C407  1  0.42200266  0.69449565  0.92944293  1
  H  H408  1  0.15284132  0.86185534  0.75991601  1
  H  H409  1  0.33712386  0.93625443  0.88519919  1
  C  C410  1  0.16195673  0.96215402  0.87925485  1
  C  C411  1  0.34815723  0.91857954  0.85345570  1
  C  C412  1  0.37631280  0.50817066  0.97246942  1
  C  C413  1  0.21830420  0.89327482  0.93064019  1
  H  H414  1  0.42300493  0.98464090  0.98024206  1
  C  C415  1  0.05457767  0.77739590  0.81136506  1
  H  H416  1  0.23678655  0.98220363  0.82050522  1
  O  O417  1  0.15812555  0.70061454  0.99205463  1
  C  C418  1  0.41282959  0.94962197  0.82741734  1
  C  C419  1  0.43626851  0.92772574  0.78794558  1
  C  C420  1  0.26664360  0.94760259  0.94783427  1
  H  H421  1  0.10700483  0.74826932  0.79219180  1
  C  C422  1  0.07922485  0.97517172  0.85419737  1
  C  C423  1  0.42341226  0.61403048  0.87323281  1
  C  C424  1  0.08752624  0.83940258  0.83759930  1
  Cu  Cu425  1  0.24909070  0.70258223  0.95267713  1
  H  H426  1  0.14682282  0.87065022  0.82626212  1
  C  C427  1  0.09188321  0.97360648  0.81055002  1
  C  C428  1  0.18248802  0.97611084  0.79801690  1
  H  H429  1  0.02266169  0.73883805  0.83233713  1
  C  C430  1  0.44311638  0.65785546  0.75649617  1
  C  C431  1  0.31706851  0.73281546  0.76025336  1
  C  C432  1  0.18408501  0.81229237  0.75042902  1
  C  C433  1  0.19897597  0.96647818  0.75687099  1
  H  H434  1  0.62918863  0.34736049  0.22028731  1
  H  H435  1  0.63887862  0.48944895  0.09736904  1
  C  C436  1  0.73115459  0.34900054  0.04364265  1
  O  O437  1  0.94183339  0.39875412  0.20827396  1
  O  O438  1  0.91725000  0.27208414  0.17012586  1
  H  H439  1  0.87192131  0.12822993  0.15429110  1
  O  O440  1  0.78294987  0.25399601  0.14674041  1
  H  H441  1  0.95825279  0.43579614  0.08682007  1
  C  C442  1  0.96840061  0.47492991  0.06087041  1
  O  O443  1  0.70017925  0.05310992  0.18124991  1
  C  C444  1  0.88415520  0.44940643  0.20318205  1
  O  O445  1  0.89248169  0.27424746  0.09541473  1
  H  H446  1  0.86728528  0.25396162  0.02506482  1
  O  O447  1  0.50630300  0.07519446  0.08773755  1
  H  H448  1  0.79125525  0.02705999  0.13031339  1
  H  H449  1  0.79617347  0.34354036  0.06142878  1
  C  C450  1  0.73334503  0.00362705  0.14625582  1
  C  C451  1  0.91993997  0.09507563  0.13601760  1
  H  H452  1  0.52876966  0.47722986  0.17184151  1
  C  C453  1  0.64234510  0.36137663  0.05981484  1
  C  C454  1  0.75868920  0.07524436  0.20774146  1
  C  C455  1  0.56920415  0.31838991  0.21525957  1
  C  C456  1  0.57109689  0.11619252  0.08951133  1
  H  H457  1  0.69665247  0.45496606  0.03064331  1
  C  C458  1  0.94747996  0.45509058  0.02100757  1
  C  C459  1  0.85825161  0.26810599  0.14192670  1
  C  C460  1  0.91421094  0.08102080  0.23466374  1
  O  O461  1  0.88481190  0.48129381  0.17237626  1
  C  C462  1  0.84816247  0.05084182  0.20821557  1
  O  O463  1  0.63707697  0.11419651  0.07005635  1
  H  H464  1  0.63464533  0.25769712  0.16776131  1
  C  C465  1  0.96769946  0.30260549  0.08681129  1
  C  C466  1  0.82554739  0.45789502  0.24067101  1
  C  C467  1  0.55123924  0.37730108  0.04204317  1
  H  H468  1  0.66628923  0.14149405  0.24247952  1
  C  C469  1  0.93511417  0.27312069  0.01478363  1
  C  C470  1  0.73370674  0.12266129  0.23957604  1
  C  C471  1  0.57377160  0.26848480  0.18506618  1
  H  H472  1  0.79328512  0.49543082  0.05553923  1
  O  O473  1  0.56200619  0.17565275  0.12349945  1
  H  H474  1  0.97820875  0.17860037  0.09920373  1
  Cu  Cu475  1  0.98733137  0.35411083  0.16627045  1
  C  C476  1  0.99306356  0.30468814  0.04364885  1
  C  C477  1  0.97724727  0.12387944  0.10795507  1
  C  C478  1  0.92933749  0.02410492  0.14706788  1
  H  H479  1  0.92402112  0.40206110  0.01134651  1
  O  O480  1  0.74133851  0.37941172  0.40383565  1
  H  H481  1  0.65677605  0.26747005  0.27570862  1
  O  O482  1  0.99082897  0.40725044  0.45001758  1
  C  C483  1  0.55790167  0.30663840  0.41146560  1
  Cu  Cu484  1  0.88072749  0.38045780  0.46923073  1
  C  C485  1  0.70331741  0.25239305  0.30174771  1
  C  C486  1  0.61863546  0.01696743  0.45638698  1
  C  C487  1  0.77744055  0.42735149  0.30300650  1
  C  C488  1  0.71230172  0.29501571  0.33730197  1
  C  C489  1  0.53596482  0.44741884  0.40273347  1
  C  C490  1  0.61338521  0.08621136  0.44282284  1
  C  C491  1  0.56506030  0.41739604  0.28791072  1
  C  C492  1  0.57078230  0.44644077  0.32685234  1
  C  C493  1  0.76297115  0.19587321  0.30138744  1
  C  C494  1  0.77455743  0.28013040  0.36791033  1
  H  H495  1  0.88312549  0.36452961  0.27221166  1
  H  H496  1  0.94222269  0.22014342  0.30166314  1
  H  H497  1  0.60071764  0.44099829  0.48678178  1
  C  C498  1  0.81347938  0.17487140  0.33693879  1
  C  C499  1  0.78814859  0.33073795  0.40232198  1
  C  C500  1  0.79512642  0.14786393  0.26725527  1
  C  C501  1  0.60664042  0.49252551  0.41277682  1
  H  H502  1  0.66534912  0.34075487  0.34015661  1
  H  H503  1  0.60538993  0.20628971  0.39466421  1
  C  C504  1  0.82278789  0.21954847  0.37005087  1
  C  C505  1  0.56668584  0.23636746  0.41701823  1
  C  C506  1  0.50001937  0.36627293  0.28125824  1
  C  C507  1  0.71955748  0.48596345  0.30493165  1
  H  H508  1  0.77106274  0.39522735  0.33020057  1
  C  C509  1  0.58440063  0.49810461  0.48811783  1
  H  H510  1  0.60557831  0.43131443  0.26095965  1
  C  C511  1  0.64884544  0.48693251  0.33797239  1
  H  H512  1  0.59331287  0.33206665  0.38599838  1
  C  C513  1  0.83580823  0.41022361  0.27256415  1
  C  C514  1  0.54080237  0.12595318  0.46049647  1
  O  O515  1  0.84523606  0.31364615  0.43180422  1
  H  H516  1  0.85462408  0.12981798  0.33543493  1
  H  H517  1  0.86804887  0.21364373  0.39573377  1
  H  H518  1  0.66414208  0.10330394  0.42062405  1
  C  C519  1  0.95871518  0.17526079  0.28188420  1
  C  C520  1  0.52610270  0.20004859  0.45101032  1
  C  C521  1  0.51402862  0.42730875  0.36175532  1
  C  C522  1  0.88973220  0.13536721  0.26452303  1
  C  C523  1  0.69065292  0.24492892  0.71806993  1
  C  C524  1  0.87263473  0.19982372  0.64646422  1
  C  C525  1  0.89686294  0.14265262  0.62374007  1
  H  H526  1  0.88896648  0.24891744  0.63674814  1
  H  H527  1  0.94188422  0.14912637  0.59771906  1
  O  O528  1  0.53675821  0.06667658  0.74235041  1
  C  C529  1  0.83033105  0.41908698  0.54986995  1
  H  H530  1  0.90370391  0.34225412  0.68421313  1
  C  C531  1  0.80884337  0.06473095  0.66848334  1
  C  C532  1  0.87195987  0.07507835  0.63641624  1
  C  C533  1  0.84229598  0.28197541  0.73330445  1
  O  O534  1  0.75285784  0.42102144  0.55708303  1
  C  C535  1  0.81352961  0.18649672  0.68066837  1
  C  C536  1  0.77461372  0.12032654  0.69000645  1
  C  C537  1  0.91122232  0.01362828  0.61624857  1
  H  H538  1  0.64590827  0.18275467  0.66556632  1
  C  C539  1  0.62438456  0.21069970  0.69372017  1
  C  C540  1  0.67849750  0.00246420  0.74743053  1
  O  O541  1  0.96878194  0.02404814  0.58598085  1
  C  C542  1  0.78572070  0.24020333  0.71116965  1
  C  C543  1  0.92662919  0.35532514  0.65287714  1
  H  H544  1  0.91550632  0.28487388  0.72664802  1
  H  H545  1  0.79332652  0.37667198  0.62844663  1
  C  C546  1  0.89473002  0.39459414  0.58242568  1
  O  O547  1  0.86531357  0.43732754  0.51396729  1
  H  H548  1  0.54629789  0.13253401  0.64379748  1
  H  H549  1  0.79147328  0.01029160  0.67622773  1
  C  C550  1  0.86796852  0.37484633  0.62182661  1
  H  H551  1  0.72707859  0.11572502  0.71468119  1
  C  C552  1  0.98559286  0.40286985  0.57209454  1
  C  C553  1  0.53553320  0.22023297  0.70658898  1
  H  H554  1  0.98582490  0.24637248  0.68368541  1
  O  O555  1  0.68081789  0.44740060  0.74302926  1
  H  H556  1  0.58899572  0.48410050  0.55559416  1
  H  H557  1  0.54125941  0.45776991  0.64639834  1
  C  C558  1  0.50805233  0.25876219  0.74184865  1
  C  C559  1  0.58942315  0.02077758  0.72669673  1
  H  H560  1  0.99731393  0.40797937  0.74147045  1
  H  H561  1  0.55331341  0.32471318  0.79091427  1
  C  C562  1  0.71697500  0.30590283  0.87338960  1
  C  C563  1  0.72323790  0.15548365  0.85816690  1
  H  H564  1  0.70747637  0.19131904  0.79319472  1
  C  C565  1  0.78544455  0.13350170  0.88896528  1
  H  H566  1  0.91772509  0.24475690  0.95156760  1
  C  C567  1  0.65476878  0.36233078  0.93261057  1
  H  H568  1  0.73145490  0.26487206  0.93417452  1
  H  H569  1  0.93997080  0.45522286  0.87377762  1
  H  H570  1  0.84721250  0.36926434  0.84280377  1
  C  C571  1  0.61749549  0.41742139  0.91133740  1
  C  C572  1  0.82956560  0.32633342  0.76726229  1
  C  C573  1  0.70581920  0.30821951  0.91468724  1
  H  H574  1  0.86704453  0.18504043  0.77934769  1
  O  O575  1  0.59956365  0.13646641  0.90064109  1
  C  C576  1  0.60301425  0.48028313  0.80246742  1
  O  O577  1  0.88114615  0.45268639  0.93756651  1
  H  H578  1  0.95607276  0.21329389  0.91102793  1
  H  H579  1  0.57646942  0.45539367  0.92719718  1
  O  O580  1  0.53105027  0.02913106  0.82278814  1
  H  H581  1  0.75334318  0.26094606  0.86140357  1
  C  C582  1  0.68791057  0.36398433  0.84832337  1
  C  C583  1  0.63404169  0.41757882  0.86861922  1
  C  C584  1  0.75086097  0.17505341  0.81760342  1
  C  C585  1  0.69743110  0.37586717  0.80500306  1
  C  C586  1  0.56063592  0.37838274  0.99931641  1
  C  C587  1  0.87563263  0.12762905  0.87962213  1
  H  H588  1  0.66959467  0.08215199  0.79397535  1
  C  C589  1  0.90411348  0.14558182  0.83833817  1
  H  H590  1  0.81600267  0.43967298  0.80767962  1
  C  C591  1  0.83923510  0.17023288  0.80898280  1
  O  O592  1  0.89739871  0.35920222  0.78606004  1
  O  O593  1  0.57746979  0.00310276  0.95625077  1
  C  C594  1  0.62766356  0.15720640  0.86458410  1
  C  C595  1  0.95724985  0.26969003  0.97413706  1
  C  C596  1  0.64381822  0.36531099  0.97931977  1
  O  O597  1  0.57105499  0.17289332  0.83869475  1
  C  C598  1  0.78920317  0.01936323  0.79924901  1
  H  H599  1  0.92430915  0.10921346  0.90299223  1
  H  H600  1  0.81368994  0.04654558  0.82606814  1
  C  C601  1  0.94854325  0.44886615  0.84026516  1
  H  H602  1  0.76156117  0.11602762  0.91878812  1
  Cu  Cu603  1  0.55068017  0.11153546  0.79093185  1
  C  C604  1  0.73662691  0.32621307  0.77486389  1
  C  C605  1  0.87332354  0.40702109  0.81928166  1
  C  C606  1  0.65991658  0.43328509  0.77903500  1
  Cu  Cu607  1  0.53313343  0.05682538  0.91403187  1
  C  C608  1  0.70796840  0.03937007  0.78169631  1
  H  H609  1  0.54247803  0.28777382  0.88857482  1
  C  C610  1  0.59434356  0.47381350  0.84497360  1
  H  H611  1  0.78606807  0.35160272  0.98093908  1
  C  C612  1  0.93097137  0.49624647  0.94832133  1
  H  H613  1  0.50399143  0.39487731  0.98081717  1
  C  C614  1  0.72472942  0.35433112  0.99931757  1
  C  C615  1  0.66771774  0.28678417  0.75330158  1
  C  C616  1  0.57349903  0.29028382  0.76481397  1
  H  H617  1  0.52421386  0.69633870  0.12919928  1
  C  C618  1  0.67234093  0.96486893  0.11607766  1
  C  C619  1  0.54963656  0.58888422  0.14595593  1
  H  H620  1  0.77666547  0.55041517  0.21033423  1
  O  O621  1  0.70009444  0.58211775  0.11647253  1
  C  C622  1  0.88994703  0.99510900  0.18298893  1
  H  H623  1  0.64563597  0.79754162  0.07709613  1
  H  H624  1  0.78030547  0.66239408  0.05990406  1
  C  C625  1  0.71148044  0.74258339  0.02875849  1
  H  H626  1  0.76333780  0.96517476  0.17066820  1
  C  C627  1  0.88049662  0.72095289  0.11425120  1
  C  C628  1  0.66684179  0.53413273  0.08020744  1
  H  H629  1  0.53621904  0.82175654  0.09926435  1
  C  C630  1  0.53282303  0.61909291  0.22019063  1
  C  C631  1  0.76973231  0.71766267  0.05801943  1
  H  H632  1  0.72885218  0.54364127  0.01905139  1
  C  C633  1  0.82511483  0.76004784  0.08238382  1
  H  H634  1  0.76810308  0.91698228  0.04073301  1
  C  C635  1  0.82413608  0.83230758  0.07695162  1
  C  C636  1  0.92346185  0.66361774  0.09767146  1
  H  H637  1  0.73773172  0.65508617  0.17965684  1
  C  C638  1  0.76946227  0.86213654  0.04718060  1
  C  C639  1  0.88472975  0.74533625  0.15672533  1
  O  O640  1  0.85783295  0.89620668  0.22590645  1
  C  C641  1  0.94763784  0.88146537  0.16771036  1
  H  H642  1  0.86558674  0.86826776  0.09396404  1
  H  H643  1  0.98997882  0.88652761  0.05547138  1
  C  C644  1  0.71406250  0.81422973  0.02531937  1
  C  C645  1  0.98446409  0.97713586  0.12129760  1
  H  H646  1  0.62744636  0.67745493  0.10366842  1
  C  C647  1  0.89623129  0.92259738  0.19324856  1
  C  C648  1  0.56602743  0.70862956  0.10032130  1
  H  H649  1  0.74877514  0.95449055  0.22607196  1
  C  C650  1  0.59838480  0.78432376  0.10221573  1
  H  H651  1  0.94870563  0.70943311  0.21485950  1
  C  C652  1  0.67221853  0.62976577  0.18324010  1
  C  C653  1  0.93798591  0.70333417  0.18158995  1
  H  H654  1  0.96058603  0.82813806  0.17801089  1
  H  H655  1  0.98808873  0.97849027  0.00214470  1
  H  H656  1  0.61144158  0.94386479  0.13115174  1
  H  H657  1  0.91237548  0.64459355  0.06650351  1
  C  C658  1  0.64510538  0.59412210  0.14828365  1
  H  H659  1  0.60730069  0.56146385  0.06712051  1
  H  H660  1  0.70784036  0.91833749  0.10288819  1
  H  H661  1  0.65913840  0.71174386  0.01243051  1
  H  H662  1  0.84219201  0.78463823  0.16987906  1
  H  H663  1  0.62939438  0.79536325  0.13342722  1
  C  C664  1  0.62362357  0.64543161  0.21873851  1
  H  H665  1  0.93817303  0.54704984  0.24256776  1
  C  C666  1  0.72447566  0.50583307  0.04516721  1
  C  C667  1  0.97768330  0.62531125  0.12515863  1
  C  C668  1  0.99374427  0.90333876  0.13262631  1
  H  H669  1  0.65163706  0.99731916  0.08769904  1
  C  C670  1  0.98603569  0.64299786  0.16943492  1
  O  O671  1  0.51545965  0.67760481  0.06870237  1
  C  C672  1  0.77380268  0.51748745  0.23715978  1
  H  H673  1  0.79609079  0.66991343  0.24505015  1
  H  H674  1  0.95609869  0.63296721  0.42749210  1
  C  C675  1  0.71629752  0.80920160  0.35854150  1
  Cu  Cu676  1  0.58426447  0.78303684  0.42086117  1
  H  H677  1  0.84164190  0.98300802  0.25776753  1
  H  H678  1  0.70331734  0.85807079  0.27858622  1
  H  H679  1  0.79444926  0.87807866  0.30872138  1
  O  O680  1  0.58515096  0.69591767  0.44303038  1
  C  C681  1  0.95267889  0.58488487  0.26834517  1
  H  H682  1  0.83872662  0.66582118  0.47558776  1
  H  H683  1  0.63417875  0.63447547  0.38571878  1
  H  H684  1  0.51060034  0.50459875  0.48303529  1
  C  C685  1  0.88536919  0.63616610  0.41629116  1
  C  C686  1  0.60080509  0.76933935  0.30782197  1
  H  H687  1  0.54525915  0.79501637  0.32483555  1
  C  C688  1  0.77190304  0.63181174  0.36153473  1
  Cu  Cu689  1  0.65456317  0.79173927  0.49435284  1
  C  C690  1  0.74761284  0.90217665  0.28854230  1
  C  C691  1  0.70865942  0.63979367  0.39164993  1
  C  C692  1  0.92113521  0.63200270  0.33621026  1
  H  H693  1  0.50975130  0.72920629  0.25969699  1
  H  H694  1  0.82963555  0.73742105  0.30994273  1
  C  C695  1  0.72742168  0.65214902  0.43350842  1
  C  C696  1  0.69136623  0.77213724  0.31916690  1
  C  C697  1  0.75969010  0.73403611  0.29922722  1
  C  C698  1  0.86258709  0.63218169  0.37369552  1
  H  H699  1  0.75660509  0.61814876  0.32921446  1
  O  O700  1  0.79155761  0.81054451  0.36956190  1
  C  C701  1  0.65886381  0.67916048  0.45989659  1
  C  C702  1  0.58269576  0.73483549  0.27081774  1
  C  C703  1  0.81897647  0.65234748  0.44470138  1
  H  H704  1  0.84774448  0.54773098  0.30746384  1
  O  O705  1  0.65323531  0.83074787  0.38376037  1
  O  O706  1  0.67537169  0.69862766  0.49679703  1
  C  C707  1  0.90415695  0.58262197  0.30339495  1
  H  H708  1  0.70699899  0.93986587  0.30541421  1
  C  C709  1  0.65265138  0.69246348  0.25259794  1
  H  H710  1  0.99163429  0.84185624  0.31873022  1
  C  C711  1  0.74454878  0.69775640  0.26272503  1
  H  H712  1  0.51718041  0.62934625  0.28887895  1
  H  H713  1  0.66626611  0.57201097  0.26830492  1
  O  O714  1  0.62937712  0.51833842  0.45098364  1
  C  C715  1  0.79370732  0.93926434  0.25212045  1
  H  H716  1  0.72514209  0.53459915  0.38644125  1
  C  C717  1  0.71531352  0.53066799  0.26948635  1
  O  O718  1  0.63344497  0.88346364  0.49093735  1
  C  C719  1  0.98771137  0.68263294  0.33281408  1
  H  H720  1  0.98508130  0.52273318  0.48013093  1
  H  H721  1  0.67185668  0.98792495  0.44367834  1
  C  C722  1  0.66094016  0.50737563  0.37849655  1
  C  C723  1  0.55929698  0.91889706  0.49833032  1
  C  C724  1  0.55531323  0.99165319  0.48531901  1
  C  C725  1  0.72940179  0.95091944  0.72727137  1
  O  O726  1  0.57395844  0.99135152  0.69511876  1
  O  O727  1  0.52580587  0.56898687  0.60978523  1
  H  H728  1  0.85772384  0.89717892  0.72748004  1
  H  H729  1  0.89437609  0.70639679  0.64285446  1
  H  H730  1  0.58699077  0.62496355  0.71014373  1
  H  H731  1  0.89838947  0.79927574  0.64140725  1
  H  H732  1  0.69983430  0.92994917  0.69926403  1
  H  H733  1  0.74969542  0.61536737  0.73344284  1
  C  C734  1  0.91206647  0.75321751  0.66154992  1
  H  H735  1  0.86317207  0.75782890  0.68708273  1
  O  O736  1  0.89480916  0.95727499  0.62849119  1
  O  O737  1  0.50606110  0.89612343  0.52388576  1
  H  H738  1  0.55793333  0.56632546  0.53443164  1
  C  C739  1  0.60913569  0.63285616  0.74166608  1
  H  H740  1  0.67573495  0.53833466  0.53721849  1
  C  C741  1  0.60694063  0.51973511  0.53255537  1
  H  H742  1  0.99202655  0.94051615  0.71590281  1
  C  C743  1  0.81427566  0.93512806  0.74242619  1
  O  O744  1  0.87282946  0.63877596  0.78883898  1
  C  C745  1  0.99086001  0.98430241  0.87248199  1
  C  C746  1  0.58513177  0.94085553  0.95549422  1
  C  C747  1  0.56054475  0.66198595  0.81110091  1
  C  C748  1  0.64684339  0.65855108  0.82546073  1
  C  C749  1  0.71429533  0.64398931  0.79494989  1
  C  C750  1  0.96360324  0.50487941  0.99059825  1
  H  H751  1  0.56583481  0.52293439  0.78774190  1
  C  C752  1  0.54769457  0.61200231  0.92485828  1
  O  O753  1  0.80571623  0.65022303  0.85085529  1
  C  C754  1  0.80166485  0.64373213  0.81275440  1
  H  H755  1  0.65085817  0.53864354  0.91256324  1
  C  C756  1  0.58461703  0.55917634  0.90309040  1
  Cu  Cu757  1  0.88787105  0.60293491  0.88431137  1
  H  H758  1  0.65848151  0.66972119  0.85865191  1
  O  O759  1  0.64797714  0.90883406  0.98994880  1
  C  C760  1  0.54027876  0.65258846  0.76853550  1
  O  O761  1  0.61036282  0.80012034  0.97489106  1
  Cu  Cu762  1  0.50699661  0.81557983  0.94707740  1
  H  H763  1  0.57285110  0.63891261  0.95104862  1
  C  C764  1  0.54242077  0.52885033  0.86877546  1
  H  H765  1  0.56090738  0.90266410  0.83137873  1
  H  H766  1  0.57678061  0.77963477  0.82030466  1
  C  C767  1  0.93112377  0.97327502  0.79986623  1
  O  O768  1  0.54925830  0.90155501  0.93218014  1
  H  H769  1  0.67638172  0.79936830  0.78794729  1
  C  C770  1  0.84434589  0.97043160  0.77851539  1
  C  C771  1  0.61922785  0.88349858  0.81644203  1
  C  C772  1  0.62543655  0.81720947  0.80857192  1
  O  O773  1  0.96426218  0.55212647  0.91814748  1
  C  C774  1  0.69648864  0.62958456  0.75316308  1
  O  O775  1  0.97556654  0.62603299  0.84915523  1
  H  H776  1  0.66878802  0.92072376  0.80518340  1
  C  C777  1  0.65659947  0.84248279  0.99432601  1
  C  C778  1  0.96516758  0.63451208  0.80901806  1
  C  C779  1  0.92286804  0.97625249  0.84272395  1
  H  H780  1  0.85654392  0.97978023  0.85725356  1
  O  O781  1  0.97236742  0.99389908  0.91273985  1
  H  H782  1  0.51021959  0.67306861  0.83528585  1
  H  H783  1  0.95039633  0.50061828  0.82481125  1
