# generated using pymatgen
data_CuH15C22O5
_symmetry_space_group_name_H-M   'P 1'
_cell_length_a   35.35445681
_cell_length_b   28.48218559
_cell_length_c   9.03190891
_cell_angle_alpha   90.00000000
_cell_angle_beta   90.00000000
_cell_angle_gamma   90.00000000
_symmetry_Int_Tables_number   1
_chemical_formula_structural   CuH15C22O5
_chemical_formula_sum   'Cu18 H270 C396 O90'
_cell_volume   9094.88119033
_cell_formula_units_Z   18
loop_
 _symmetry_equiv_pos_site_id
 _symmetry_equiv_pos_as_xyz
  1  'x, y, z'
loop_
 _atom_site_type_symbol
 _atom_site_label
 _atom_site_symmetry_multiplicity
 _atom_site_fract_x
 _atom_site_fract_y
 _atom_site_fract_z
 _atom_site_occupancy
  O  O0  1  0.16574992  0.09382091  0.25746569  1
  C  C1  1  0.03503928  0.16612764  0.20476765  1
  C  C2  1  0.11054647  0.15084130  0.24818241  1
  C  C3  1  0.08690830  0.11069157  0.21902025  1
  C  C4  1  0.04975870  0.11885725  0.18629535  1
  H  H5  1  0.09806486  0.07224613  0.22441154  1
  C  C6  1  0.09662849  0.19748754  0.24324059  1
  C  C7  1  0.05798233  0.20635932  0.22060034  1
  H  H8  1  0.03114966  0.08986688  0.15930564  1
  C  C9  1  0.20063597  0.09233719  0.27146932  1
  O  O10  1  0.17207168  0.17616523  0.29924582  1
  C  C11  1  0.15079134  0.14658207  0.26747453  1
  H  H12  1  0.22168153  0.12170024  0.29623349  1
  C  C13  1  0.22999279  0.05860179  0.26626056  1
  H  H14  1  0.11780930  0.22479769  0.25907983  1
  C  C15  1  0.21585769  0.01499023  0.21052853  1
  H  H16  1  0.04623888  0.24320911  0.22092331  1
  H  H17  1  0.18485941  0.00965235  0.20605754  1
  H  H18  1  0.00498098  0.24031816  0.31919294  1
  O  O19  1  0.06025360  0.00949965  0.25090108  1
  H  H20  1  0.05394754  0.17677715  0.45711351  1
  H  H21  1  0.12822042  0.02297771  0.07665699  1
  C  C22  1  0.21735864  0.49327706  0.00003511  1
  H  H23  1  0.24832444  0.31771039  0.02583734  1
  H  H24  1  0.09508469  0.37649212  0.46087487  1
  C  C25  1  0.09543066  0.40933146  0.02472650  1
  C  C26  1  0.12886004  0.47966125  0.08755433  1
  O  O27  1  0.13371172  0.44246613  0.44157667  1
  H  H28  1  0.08001289  0.45653965  0.20497254  1
  C  C29  1  0.03178049  0.46815689  0.43716036  1
  Cu  Cu30  1  0.00942650  0.43138329  0.11735970  1
  C  C31  1  0.06577052  0.37271425  0.02756347  1
  Cu  Cu32  1  0.18439243  0.46539483  0.42546110  1
  C  C33  1  0.06550307  0.44371739  0.44003514  1
  O  O34  1  0.03895922  0.37706335  0.11921313  1
  C  C35  1  0.06760534  0.39344106  0.44723436  1
  C  C36  1  0.10325738  0.46975187  0.43879311  1
  H  H37  1  0.21471893  0.46254065  0.07570875  1
  H  H38  1  0.03351431  0.32849115  0.44475714  1
  C  C39  1  0.03350903  0.36852999  0.43867563  1
  C  C40  1  0.09855023  0.44937098  0.11472395  1
  O  O41  1  0.03923226  0.26296319  0.48535830  1
  C  C42  1  0.08216440  0.13325502  0.63628560  1
  C  C43  1  0.10155180  0.13367727  0.77768987  1
  C  C44  1  0.06571609  0.17396101  0.57421230  1
  C  C45  1  0.06828960  0.21513650  0.66291887  1
  C  C46  1  0.07982953  0.21509757  0.81113987  1
  C  C47  1  0.13649837  0.05559864  0.81370538  1
  O  O48  1  0.10621391  0.03429435  0.76867728  1
  C  C49  1  0.13548356  0.10562295  0.82864578  1
  C  C50  1  0.16457112  0.13277717  0.88576841  1
  C  C51  1  0.17215404  0.03847892  0.87033556  1
  H  H52  1  0.16221923  0.17100687  0.90467061  1
  H  H53  1  0.19639765  0.20491622  0.85784904  1
  C  C54  1  0.09575443  0.17438813  0.86683204  1
  C  C55  1  0.20018381  0.11345039  0.92760186  1
  C  C56  1  0.22511396  0.19434982  0.89786563  1
  C  C57  1  0.20345454  0.06358724  0.92385291  1
  H  H58  1  0.08569248  0.10190314  0.56601464  1
  C  C59  1  0.23192810  0.14929599  0.95637917  1
  H  H60  1  0.22903224  0.04672465  0.96360902  1
  H  H61  1  0.22028879  0.23786986  0.62976174  1
  H  H62  1  0.08173510  0.24927838  0.87582398  1
  H  H63  1  0.10679596  0.17542856  0.97854941  1
  O  O64  1  0.22900913  0.44056543  0.70622707  1
  C  C65  1  0.05704535  0.26203881  0.60053640  1
  C  C66  1  0.14847116  0.43610565  0.87029222  1
  H  H67  1  0.02363236  0.49702182  0.68804560  1
  O  O68  1  0.06640081  0.29968486  0.67092698  1
  C  C69  1  0.15446518  0.47503992  0.96888798  1
  Cu  Cu70  1  0.23593607  0.49210770  0.61763526  1
  H  H71  1  0.16831818  0.42606703  0.78033520  1
  C  C72  1  0.24130716  0.27155927  0.82632114  1
  C  C73  1  0.22416488  0.27044949  0.68336174  1
  C  C74  1  0.21935903  0.40314342  0.63133296  1
  C  C75  1  0.22519096  0.35696255  0.69449267  1
  H  H76  1  0.23488777  0.39231816  0.91089420  1
  C  C77  1  0.23553932  0.35847617  0.84398716  1
  O  O78  1  0.20683368  0.40738660  0.50286134  1
  C  C79  1  0.11907197  0.40529599  0.89957337  1
  C  C80  1  0.21729678  0.31305245  0.62136704  1
  H  H81  1  0.20752768  0.31773902  0.50977089  1
  C  C82  1  0.24295518  0.31491686  0.90657400  1
  H  H83  1  0.11526024  0.37541977  0.82674870  1
  O  O84  1  0.06449003  0.34077111  0.93188112  1
  Cu  Cu85  1  0.03255486  0.34334180  0.75290561  1
  H  H86  1  0.03241400  0.26785869  0.94570040  1
  C  C87  1  0.00216826  0.27330154  0.97090111  1
  H  H88  1  0.19458591  0.56487029  0.13783104  1
  C  C89  1  0.20624589  0.63981321  0.10015963  1
  C  C90  1  0.20783872  0.59749504  0.18329372  1
  H  H91  1  0.07515346  0.57488531  0.34370189  1
  C  C92  1  0.22523917  0.67944042  0.16038512  1
  C  C93  1  0.22613484  0.59425258  0.31830248  1
  C  C94  1  0.04987606  0.59564560  0.36898514  1
  O  O95  1  0.20612201  0.51691456  0.34181161  1
  C  C96  1  0.22519687  0.55059979  0.40391874  1
  O  O97  1  0.12343672  0.63854846  0.37926119  1
  C  C98  1  0.05653251  0.64098280  0.42379387  1
  C  C99  1  0.22385429  0.72683283  0.09346425  1
  C  C100  1  0.09647349  0.65873993  0.43121356  1
  O  O101  1  0.10654352  0.51168074  0.44553492  1
  C  C102  1  0.24718513  0.63272697  0.36644773  1
  C  C103  1  0.24796975  0.67461748  0.29095919  1
  H  H104  1  0.03360908  0.50715582  0.43643568  1
  O  O105  1  0.01747702  0.74550526  0.14797433  1
  Cu  Cu106  1  0.08177473  0.74756067  0.35505924  1
  C  C107  1  0.01338673  0.57905577  0.35287472  1
  H  H108  1  0.00604678  0.54817212  0.29172099  1
  H  H109  1  0.13293778  0.50767310  0.16732993  1
  C  C110  1  0.02519950  0.66615234  0.47575074  1
  H  H111  1  0.18290238  0.67814060  0.45402332  1
  O  O112  1  0.10013999  0.70100207  0.48593778  1
  C  C113  1  0.07759051  0.97456300  0.26335978  1
  H  H114  1  0.24494747  0.82392298  0.39939565  1
  O  O115  1  0.06377002  0.79125664  0.22720249  1
  C  C116  1  0.03172372  0.78259768  0.15284861  1
  C  C117  1  0.00809401  0.90735198  0.05097911  1
  H  H118  1  0.24350163  0.90228221  0.15714347  1
  O  O119  1  0.20529702  0.76309216  0.44495232  1
  H  H120  1  0.22482901  0.95054289  0.11500027  1
  H  H121  1  0.05609960  0.87821784  0.14472810  1
  O  O122  1  0.13689516  0.87659408  0.29374006  1
  H  H123  1  0.16372890  0.92197978  0.00863564  1
  C  C124  1  0.11436775  0.95786669  0.19736054  1
  C  C125  1  0.12676770  0.91230327  0.24938379  1
  C  C126  1  0.13381649  0.98496307  0.08572105  1
  Cu  Cu127  1  0.06710160  0.83207584  0.37718115  1
  H  H128  1  0.01800933  0.94311368  0.04423316  1
  C  C129  1  0.24042746  0.97984308  0.16941046  1
  C  C130  1  0.02799431  0.86992679  0.10348100  1
  H  H131  1  0.05419499  0.94964473  0.30753360  1
  H  H132  1  0.13079046  0.82936350  0.08172100  1
  C  C133  1  0.01198573  0.82448072  0.09626095  1
  O  O134  1  0.23105236  0.92566451  0.49919397  1
  C  C135  1  0.19906024  0.62917174  0.63017710  1
  C  C136  1  0.22171960  0.62133477  0.76167935  1
  O  O137  1  0.15239211  0.56834066  0.76799241  1
  H  H138  1  0.18551529  0.59895460  0.57655104  1
  C  C139  1  0.07990301  0.56450544  0.71736594  1
  C  C140  1  0.11702127  0.54360363  0.77943949  1
  C  C141  1  0.18244978  0.55269189  0.84300038  1
  C  C142  1  0.21820994  0.57563251  0.83816421  1
  H  H143  1  0.06449989  0.53689379  0.64915998  1
  C  C144  1  0.09879359  0.70445345  0.82074740  1
  H  H145  1  0.11104284  0.53031175  0.89437582  1
  H  H146  1  0.02238988  0.67831511  0.75141668  1
  C  C147  1  0.22291026  0.70449960  0.62212219  1
  H  H148  1  0.03261370  0.70071827  0.52344494  1
  C  C149  1  0.18533467  0.51131961  0.93366777  1
  C  C150  1  0.19760051  0.67136896  0.55896309  1
  H  H151  1  0.12534773  0.51238542  0.70666619  1
  H  H152  1  0.08522658  0.59805932  0.65045974  1
  H  H153  1  0.05761226  0.57301303  0.80274002  1
  H  H154  1  0.07717744  0.72808556  0.76925664  1
  H  H155  1  0.10617151  0.67484804  0.74584216  1
  C  C156  1  0.00408267  0.71073951  0.73635611  1
  C  C157  1  0.01280630  0.74865532  0.64988655  1
  C  C158  1  0.24459002  0.65745021  0.82469378  1
  C  C159  1  0.24645246  0.69948518  0.74965920  1
  H  H160  1  0.08429688  0.68935366  0.91708227  1
  C  C161  1  0.13407935  0.73347682  0.86145057  1
  O  O162  1  0.24149499  0.54689170  0.52521730  1
  H  H163  1  0.15045334  0.74413007  0.75556995  1
  O  O164  1  0.16299835  0.71593291  0.96512692  1
  O  O165  1  0.03236209  0.53236369  0.97999808  1
  H  H166  1  0.18950789  0.64194850  0.99452703  1
  C  C167  1  0.19253645  0.74142218  0.99971694  1
  H  H168  1  0.12753894  0.76464537  0.91871449  1
  H  H169  1  0.14099070  0.92172069  0.64616482  1
  O  O170  1  0.00077480  0.81979518  0.58648893  1
  H  H171  1  0.21270079  0.98933005  0.68182020  1
  C  C172  1  0.13847080  0.84618601  0.66111631  1
  H  H173  1  0.13661325  0.84665690  0.54279802  1
  C  C174  1  0.13289748  0.83470474  0.96555651  1
  H  H175  1  0.08081083  0.96747460  0.73961504  1
  H  H176  1  0.22340780  0.85741363  0.98065566  1
  C  C177  1  0.07530699  0.87786287  0.65290051  1
  C  C178  1  0.22430708  0.81905411  0.99941530  1
  H  H179  1  0.16257163  0.97596613  0.60533648  1
  C  C180  1  0.19554874  0.78964888  0.95593062  1
  Cu  Cu181  1  0.00678487  0.85851445  0.75359800  1
  C  C182  1  0.24599777  0.92491287  0.61376480  1
  C  C183  1  0.22447752  0.75114415  0.54641383  1
  C  C184  1  0.17759670  0.98563171  0.88130607  1
  H  H185  1  0.19570984  0.81502717  0.66402071  1
  C  C186  1  0.02038793  0.78106915  0.57473547  1
  C  C187  1  0.10936380  0.98056791  0.73725885  1
  O  O188  1  0.04714400  0.89521224  0.72075471  1
  C  C189  1  0.20505181  0.96676476  0.78405222  1
  O  O190  1  0.06237397  0.78579404  0.50879719  1
  C  C191  1  0.16562627  0.81850794  0.87841974  1
  C  C192  1  0.10280817  0.85830096  0.89595820  1
  H  H193  1  0.07980370  0.87343577  0.95678648  1
  C  C194  1  0.16978419  0.82608341  0.72520406  1
  H  H195  1  0.12409744  0.97209411  0.84072639  1
  C  C196  1  0.10550146  0.86079445  0.73953648  1
  C  C197  1  0.13483806  0.95862174  0.61420579  1
  O  O198  1  0.22156925  0.92787412  0.75870760  1
  O  O199  1  0.07778339  0.88066367  0.50789125  1
  C  C200  1  0.15914143  0.95909803  0.99709099  1
  H  H201  1  0.12154258  0.95708480  0.50082652  1
  Cu  Cu202  1  0.31754463  0.14918235  0.31411664  1
  O  O203  1  0.29695219  0.21178934  0.26967531  1
  H  H204  1  0.42171058  0.13290467  0.42627804  1
  O  O205  1  0.35829765  0.14299563  0.44716695  1
  C  C206  1  0.26780491  0.07414487  0.30592485  1
  O  O207  1  0.30034810  0.04841402  0.29708940  1
  O  O208  1  0.27406381  0.11402564  0.35443205  1
  O  O209  1  0.46734524  0.15191690  0.26616186  1
  C  C210  1  0.44819953  0.11084882  0.20731498  1
  H  H211  1  0.42368016  0.19541545  0.15323937  1
  H  H212  1  0.49264839  0.13870571  0.28936462  1
  O  O213  1  0.46412388  0.07405240  0.20071362  1
  C  C214  1  0.40777653  0.12209631  0.16100887  1
  C  C215  1  0.40034504  0.16981274  0.13364640  1
  C  C216  1  0.38058763  0.08914763  0.12659247  1
  H  H217  1  0.38675767  0.05177533  0.14679996  1
  C  C218  1  0.36522047  0.18259146  0.08041648  1
  H  H219  1  0.27739260  0.10508470  0.07048024  1
  H  H220  1  0.35921164  0.22061469  0.05718142  1
  C  C221  1  0.33625319  0.14921615  0.03846525  1
  C  C222  1  0.34631334  0.10189106  0.06329266  1
  C  C223  1  0.30372318  0.00574142  0.25120599  1
  H  H224  1  0.43877913  0.00107733  0.13745709  1
  H  H225  1  0.40309319  0.04580742  0.39313808  1
  C  C226  1  0.28921316  0.24107970  0.36896370  1
  H  H227  1  0.32550020  0.07325611  0.03660518  1
  C  C228  1  0.27063202  0.13770492  0.00739291  1
  O  O229  1  0.27746510  0.22599634  0.49488746  1
  H  H230  1  0.47588294  0.15387560  0.00358616  1
  H  H231  1  0.30566407  0.27406141  0.09262530  1
  H  H232  1  0.41447248  0.33060626  0.44511984  1
  C  C233  1  0.41681222  0.36923075  0.44330940  1
  H  H234  1  0.35654177  0.38149256  0.44982593  1
  C  C235  1  0.34777242  0.46007726  0.27904530  1
  H  H236  1  0.25855571  0.43451147  0.12168672  1
  C  C237  1  0.31468379  0.43701972  0.23078163  1
  C  C238  1  0.30578053  0.30191265  0.18419135  1
  O  O239  1  0.37761420  0.44347681  0.35107600  1
  C  C240  1  0.28442463  0.45538450  0.14649027  1
  C  C241  1  0.29737069  0.29026834  0.33537309  1
  C  C242  1  0.30890515  0.38412395  0.26258140  1
  H  H243  1  0.44079927  0.37887642  0.36641974  1
  C  C244  1  0.29671759  0.37136447  0.40564146  1
  C  C245  1  0.31111879  0.34779169  0.15021465  1
  H  H246  1  0.31702558  0.35638214  0.03752733  1
  H  H247  1  0.37126285  0.37805336  0.27359019  1
  C  C248  1  0.38051675  0.39138536  0.38162309  1
  C  C249  1  0.29098661  0.32471153  0.44208778  1
  H  H250  1  0.28958000  0.39907233  0.48829681  1
  H  H251  1  0.37299121  0.11363177  0.85775698  1
  C  C252  1  0.43565060  0.10133763  0.84149187  1
  H  H253  1  0.43707282  0.09050644  0.95736249  1
  C  C254  1  0.39945993  0.11174656  0.78933659  1
  C  C255  1  0.29487284  0.21584643  0.91182246  1
  C  C256  1  0.46970328  0.10606210  0.75329425  1
  H  H257  1  0.36447725  0.04367780  0.52084512  1
  O  O258  1  0.32894756  0.13046748  0.66026925  1
  C  C259  1  0.39690979  0.12387625  0.63764087  1
  C  C260  1  0.39421147  0.03170447  0.50592980  1
  H  H261  1  0.41171674  0.05048050  0.59793903  1
  Cu  Cu262  1  0.30191524  0.17944678  0.59106482  1
  C  C263  1  0.35872502  0.13045075  0.58002544  1
  C  C264  1  0.46426615  0.11362896  0.59829637  1
  C  C265  1  0.42883552  0.12335233  0.54415966  1
  C  C266  1  0.29943361  0.17016670  0.98642136  1
  C  C267  1  0.25554086  0.22471090  0.88682962  1
  O  O268  1  0.32437517  0.24023041  0.86924767  1
  H  H269  1  0.48829461  0.11537038  0.52097980  1
  H  H270  1  0.30163825  0.30625995  0.86799800  1
  H  H271  1  0.36149775  0.29084104  0.62481731  1
  H  H272  1  0.37210176  0.31993946  0.79334559  1
  H  H273  1  0.28023138  0.31585495  0.55347210  1
  H  H274  1  0.33772377  0.34680472  0.66608759  1
  C  C275  1  0.34913823  0.31372662  0.71203028  1
  H  H276  1  0.42405781  0.38459642  0.55165044  1
  C  C277  1  0.31646179  0.28511711  0.77875768  1
  H  H278  1  0.29480860  0.27585641  0.69156946  1
  C  C279  1  0.42528593  0.57895695  0.39281780  1
  C  C280  1  0.44845815  0.58421518  0.26262206  1
  C  C281  1  0.48229096  0.61240218  0.27495437  1
  C  C282  1  0.39234816  0.55299433  0.37900136  1
  C  C283  1  0.38151030  0.53563037  0.23496378  1
  C  C284  1  0.31582480  0.52728422  0.13986417  1
  C  C285  1  0.36224236  0.67924332  0.27342719  1
  C  C286  1  0.37622602  0.72447013  0.23996343  1
  C  C287  1  0.44099913  0.56227275  0.12629555  1
  C  C288  1  0.36696442  0.63982477  0.17856446  1
  H  H289  1  0.35828205  0.60418610  0.21437570  1
  C  C290  1  0.34494738  0.67486312  0.42032533  1
  O  O291  1  0.48803229  0.63359837  0.40081112  1
  C  C292  1  0.39333973  0.72965934  0.10356104  1
  C  C293  1  0.40769208  0.53614715  0.11181917  1
  H  H294  1  0.31708378  0.56449266  0.09448888  1
  O  O295  1  0.33434217  0.63871211  0.46676390  1
  H  H296  1  0.37149758  0.55073980  0.47851121  1
  C  C297  1  0.39934055  0.69078399  0.00716933  1
  C  C298  1  0.38769081  0.64433124  0.04820040  1
  C  C299  1  0.34629097  0.50603994  0.21627251  1
  H  H300  1  0.45838814  0.56698126  0.02083154  1
  H  H301  1  0.43374242  0.59679017  0.49369460  1
  C  C302  1  0.28294175  0.50307818  0.10478373  1
  H  H303  1  0.26412234  0.63032159  0.46569814  1
  H  H304  1  0.26456843  0.70528727  0.32919986  1
  H  H305  1  0.39796731  0.51750283  0.01275220  1
  H  H306  1  0.27751453  0.74093983  0.19842690  1
  C  C307  1  0.25210729  0.51992051  0.00004001  1
  C  C308  1  0.25444545  0.75600768  0.13229495  1
  H  H309  1  0.37363093  0.75488463  0.30926553  1
  H  H310  1  0.38274287  0.96189933  0.42013983  1
  H  H311  1  0.38005731  0.84086594  0.38196938  1
  H  H312  1  0.44290503  0.81404180  0.42564024  1
  H  H313  1  0.32919577  0.79465406  0.07147989  1
  C  C314  1  0.43282599  0.81820290  0.30866395  1
  C  C315  1  0.28343673  0.84349264  0.11232895  1
  C  C316  1  0.30082403  0.92556007  0.15165332  1
  C  C317  1  0.48626022  0.76914009  0.21016290  1
  C  C318  1  0.32131211  0.83220645  0.09309095  1
  H  H319  1  0.40331510  0.76423477  0.07130033  1
  H  H320  1  0.44079046  0.97913812  0.32534520  1
  C  C321  1  0.25520379  0.80294934  0.08863526  1
  H  H322  1  0.36281166  0.90711224  0.40466493  1
  C  C323  1  0.34004325  0.91608500  0.15280986  1
  C  C324  1  0.43912641  0.96861763  0.20755505  1
  C  C325  1  0.27376732  0.89157660  0.14407785  1
  C  C326  1  0.45676825  0.80349190  0.19407207  1
  C  C327  1  0.40928418  0.93149089  0.16573153  1
  H  H328  1  0.46873822  0.95461809  0.18996713  1
  C  C329  1  0.30388738  0.81236295  0.40346990  1
  H  H330  1  0.31315296  0.84461357  0.33906194  1
  C  C331  1  0.28025284  0.97201441  0.18596645  1
  C  C332  1  0.39668380  0.83583180  0.28583739  1
  C  C333  1  0.44797939  0.81939413  0.04644659  1
  C  C334  1  0.34873318  0.86771452  0.11739721  1
  H  H335  1  0.30160683  0.78380600  0.32373716  1
  C  C336  1  0.38849229  0.84900233  0.13684790  1
  H  H337  1  0.28870406  0.91564322  0.38976894  1
  H  H338  1  0.41177875  0.90433420  0.25681864  1
  C  C339  1  0.41528217  0.84381802  0.01926022  1
  H  H340  1  0.41665395  0.91893170  0.05496630  1
  O  O341  1  0.36725340  0.94837522  0.16102767  1
  H  H342  1  0.32578116  0.80467845  0.48771908  1
  O  O343  1  0.49153369  0.75765536  0.34361127  1
  H  H344  1  0.33442381  0.99598995  0.27157726  1
  C  C345  1  0.30623622  0.91024982  0.49110306  1
  C  C346  1  0.26608399  0.81826695  0.49261945  1
  C  C347  1  0.42265489  0.69684314  0.87154551  1
  C  C348  1  0.45591449  0.66506853  0.83599353  1
  O  O349  1  0.45643306  0.62411427  0.87806287  1
  C  C350  1  0.48851178  0.68910875  0.76406697  1
  H  H351  1  0.35165392  0.68707296  0.69631255  1
  H  H352  1  0.27543359  0.58413142  0.91482686  1
  C  C353  1  0.33020048  0.71508647  0.65056032  1
  H  H354  1  0.30199354  0.69440999  0.65044130  1
  C  C355  1  0.48288724  0.73343516  0.70385975  1
  H  H356  1  0.39633876  0.61369044  0.98040708  1
  H  H357  1  0.33034771  0.74324902  0.87946460  1
  H  H358  1  0.26295797  0.72686809  0.79485248  1
  O  O359  1  0.34190680  0.71964497  0.50576517  1
  C  C360  1  0.41759500  0.74190612  0.80833519  1
  H  H361  1  0.26155222  0.65538477  0.93185412  1
  C  C362  1  0.25153492  0.56059326  0.91177574  1
  C  C363  1  0.32835561  0.75584895  0.77015526  1
  C  C364  1  0.44540209  0.81105179  0.67629386  1
  H  H365  1  0.38163971  0.96689744  0.62851435  1
  H  H366  1  0.35483149  0.77621118  0.76613729  1
  H  H367  1  0.46590463  0.80758362  0.95159904  1
  H  H368  1  0.28660953  0.90746835  0.87011398  1
  C  C369  1  0.43469674  0.90922199  0.59448557  1
  H  H370  1  0.40851946  0.85623891  0.91171197  1
  H  H371  1  0.30444708  0.78272382  0.75861391  1
  C  C372  1  0.34117033  0.89364164  0.77514706  1
  C  C373  1  0.30282332  0.90584774  0.76781884  1
  C  C374  1  0.47720815  0.83806677  0.63823519  1
  C  C375  1  0.39630016  0.97781410  0.52343627  1
  C  C376  1  0.40951330  0.83186058  0.66769833  1
  O  O377  1  0.43471003  0.95359613  0.55560496  1
  O  O378  1  0.25079525  0.78684356  0.59870812  1
  H  H379  1  0.27078748  0.84928524  0.57362532  1
  H  H380  1  0.38252692  0.81297913  0.67987621  1
  C  C381  1  0.46996715  0.88477777  0.60305537  1
  H  H382  1  0.35577035  0.88453763  0.87855286  1
  C  C383  1  0.44811104  0.75952177  0.72392848  1
  C  C384  1  0.36365368  0.89429424  0.64015006  1
  C  C385  1  0.40410295  0.87934371  0.63809515  1
  C  C386  1  0.28661124  0.91517015  0.62609191  1
  H  H387  1  0.39567255  0.76482436  0.84775387  1
  C  C388  1  0.34503101  0.90654167  0.50391704  1
  H  H389  1  0.69313759  0.11725971  0.26435540  1
  H  H390  1  0.66492620  0.03295839  0.23156695  1
  H  H391  1  0.65251726  0.17326090  0.24334621  1
  C  C392  1  0.62650782  0.18569820  0.19192661  1
  C  C393  1  0.66604881  0.05892492  0.14052783  1
  C  C394  1  0.67745290  0.10618776  0.16030421  1
  C  C395  1  0.59323021  0.18736253  0.29898463  1
  H  H396  1  0.56492498  0.18902734  0.24473335  1
  H  H397  1  0.59359623  0.15643640  0.37318312  1
  H  H398  1  0.61973453  0.16668719  0.09062209  1
  H  H399  1  0.59442278  0.21709632  0.37298759  1
  O  O400  1  0.64355589  0.23452249  0.13280261  1
  C  C401  1  0.52997326  0.02851752  0.40708475  1
  C  C402  1  0.70921631  0.19549302  0.43794539  1
  O  O403  1  0.71846813  0.17043366  0.33577183  1
  H  H404  1  0.66676710  0.11304329  0.42314305  1
  C  C405  1  0.73542491  0.03025967  0.41937679  1
  C  C406  1  0.67532540  0.23036546  0.06413891  1
  H  H407  1  0.50946405  0.03874033  0.32302236  1
  O  O408  1  0.72255114  0.23770463  0.45501444  1
  H  H409  1  0.55902970  0.02165211  0.36531060  1
  C  C410  1  0.67583819  0.13707584  0.03873850  1
  C  C411  1  0.69276760  0.18545490  0.02076019  1
  C  C412  1  0.74889688  0.07315127  0.38040678  1
  H  H413  1  0.74677936  0.07863337  0.26273170  1
  C  C414  1  0.65170283  0.04437418  0.00321325  1
  C  C415  1  0.73501670  0.36648862  0.48586237  1
  O  O416  1  0.71761993  0.40582888  0.46618660  1
  Cu  Cu417  1  0.72981981  0.28148828  0.31279715  1
  O  O418  1  0.74745365  0.32085471  0.15302629  1
  H  H419  1  0.69591780  0.46858233  0.15328658  1
  C  C420  1  0.72455808  0.45947347  0.15183669  1
  O  O421  1  0.71845028  0.32772107  0.47680589  1
  C  C422  1  0.73562605  0.41256812  0.14852821  1
  H  H423  1  0.71185589  0.38488214  0.14103246  1
  H  H424  1  0.62381188  0.29977436  0.06836881  1
  C  C425  1  0.64088426  0.32896736  0.01104783  1
  C  C426  1  0.66268428  0.12221007  0.89748140  1
  H  H427  1  0.66205537  0.14688508  0.80762452  1
  H  H428  1  0.63809576  0.06148770  0.78188618  1
  C  C429  1  0.57112241  0.15437373  0.76917138  1
  C  C430  1  0.60645659  0.16299713  0.68648025  1
  C  C431  1  0.62786888  0.20527733  0.70542233  1
  C  C432  1  0.56709829  0.18784389  0.89975894  1
  C  C433  1  0.66180133  0.21459684  0.63501966  1
  C  C434  1  0.54173444  0.12504248  0.72695431  1
  C  C435  1  0.65036376  0.07643572  0.88648844  1
  H  H436  1  0.74411117  0.05675121  0.99172674  1
  H  H437  1  0.59164586  0.20693611  0.94510085  1
  C  C438  1  0.50737926  0.12450425  0.80451154  1
  C  C439  1  0.62403017  0.13262834  0.58248492  1
  H  H440  1  0.51056976  0.04944339  0.63564578  1
  H  H441  1  0.61051932  0.09878318  0.55408548  1
  O  O442  1  0.54719650  0.09538392  0.57599996  1
  C  C443  1  0.52871987  0.05978903  0.54445827  1
  C  C444  1  0.67528356  0.18335340  0.52848455  1
  C  C445  1  0.50250930  0.15267725  0.94159463  1
  C  C446  1  0.72779021  0.17907671  0.95090447  1
  H  H447  1  0.73854382  0.14285868  0.93494911  1
  C  C448  1  0.74806657  0.21949765  0.91080496  1
  C  C449  1  0.65631403  0.13992109  0.50144585  1
  H  H450  1  0.61749919  0.23327768  0.78319265  1
  C  C451  1  0.53384636  0.17834335  0.96334841  1
  H  H452  1  0.67617717  0.25075328  0.64830200  1
  C  C453  1  0.67809451  0.31551129  0.96774308  1
  C  C454  1  0.62796047  0.44309022  0.81571060  1
  O  O455  1  0.59675607  0.45434326  0.84416056  1
  C  C456  1  0.69409765  0.26708484  0.99034805  1
  O  O457  1  0.64730478  0.46830815  0.69314028  1
  Cu  Cu458  1  0.68347800  0.43719987  0.58455752  1
  C  C459  1  0.62559487  0.37098521  0.96753654  1
  C  C460  1  0.64811133  0.40414055  0.88583773  1
  H  H461  1  0.59468420  0.37594274  0.99467716  1
  C  C462  1  0.68796286  0.39653070  0.88081509  1
  H  H463  1  0.73355518  0.34730104  0.91329359  1
  C  C464  1  0.72924629  0.26186786  0.91856638  1
  H  H465  1  0.74196840  0.29192256  0.85419495  1
  C  C466  1  0.70219626  0.35236591  0.91531658  1
  O  O467  1  0.71737735  0.48736507  0.63660435  1
  H  H468  1  0.70698694  0.42599419  0.84475950  1
  C  C469  1  0.64074034  0.68623108  0.37561929  1
  C  C470  1  0.67718055  0.67014924  0.35195248  1
  C  C471  1  0.57627715  0.69409111  0.26714702  1
  O  O472  1  0.56074767  0.70299090  0.38368779  1
  C  C473  1  0.61679023  0.68206615  0.25430371  1
  C  C474  1  0.71922227  0.61673975  0.19136492  1
  C  C475  1  0.68690741  0.65118320  0.21097913  1
  O  O476  1  0.55719782  0.68470036  0.15046423  1
  C  C477  1  0.65527473  0.56961724  0.36696052  1
  H  H478  1  0.67382783  0.58908172  0.45250887  1
  H  H479  1  0.64545969  0.59140252  0.27488860  1
  C  C480  1  0.71529556  0.56527081  0.21123935  1
  C  C481  1  0.62791892  0.66427484  0.11393321  1
  O  O482  1  0.68932666  0.54136093  0.27784038  1
  H  H483  1  0.69791157  0.66922573  0.43822864  1
  H  H484  1  0.63204560  0.69971948  0.47999214  1
  H  H485  1  0.59822212  0.57566178  0.46806551  1
  C  C486  1  0.62034935  0.54844097  0.44033247  1
  Cu  Cu487  1  0.50585658  0.69714877  0.40794003  1
  C  C488  1  0.74584613  0.64144872  0.11292636  1
  Cu  Cu489  1  0.50537669  0.68323446  0.09267938  1
  H  H490  1  0.74091425  0.67990244  0.09727347  1
  C  C491  1  0.66354112  0.64999949  0.07705322  1
  H  H492  1  0.60586783  0.66083829  0.03081723  1
  C  C493  1  0.74718769  0.54386078  0.14752001  1
  O  O494  1  0.50156693  0.62045361  0.16194548  1
  H  H495  1  0.60540556  0.52223048  0.37154556  1
  O  O496  1  0.70685857  0.92922304  0.02419301  1
  O  O497  1  0.63894701  0.92426873  0.39841136  1
  C  C498  1  0.56712460  0.89181003  0.43215952  1
  C  C499  1  0.74483477  0.79059385  0.29679325  1
  H  H500  1  0.73109013  0.80116712  0.40992440  1
  C  C501  1  0.72809996  0.80818893  0.17075746  1
  H  H502  1  0.58602256  0.86838219  0.36369324  1
  O  O503  1  0.67665503  0.85121427  0.08328703  1
  Cu  Cu504  1  0.65727426  0.90891491  0.07584337  1
  O  O505  1  0.50126936  0.75002878  0.09994779  1
  C  C506  1  0.69278668  0.83446421  0.19593117  1
  O  O507  1  0.68442553  0.85034414  0.32408070  1
  O  O508  1  0.63398614  0.96467148  0.07574239  1
  Cu  Cu509  1  0.68992191  0.91063718  0.37958382  1
  O  O510  1  0.70831889  0.96670718  0.31173995  1
  C  C511  1  0.74203583  0.80028671  0.02501276  1
  H  H512  1  0.51912091  0.84610033  0.41937184  1
  C  C513  1  0.53130717  0.87723441  0.46377262  1
  C  C514  1  0.72195974  0.99268705  0.41731680  1
  H  H515  1  0.51727954  0.99348101  0.43301733  1
  C  C516  1  0.61880874  0.94801628  0.49193553  1
  C  C517  1  0.57107937  0.60204189  0.78396485  1
  H  H518  1  0.57720975  0.56357775  0.80162280  1
  C  C519  1  0.63991408  0.61054793  0.75067410  1
  C  C520  1  0.60103098  0.63288401  0.75305012  1
  C  C521  1  0.59472194  0.68092519  0.71958833  1
  C  C522  1  0.55783746  0.69806971  0.72075732  1
  H  H523  1  0.61964309  0.70117434  0.70746608  1
  C  C524  1  0.53407537  0.62009334  0.79243352  1
  H  H525  1  0.55228037  0.73730969  0.70176998  1
  O  O526  1  0.66456374  0.63307343  0.70106704  1
  C  C527  1  0.52736436  0.66971155  0.76640880  1
  O  O528  1  0.64400038  0.56614095  0.78932910  1
  Cu  Cu529  1  0.68042182  0.52335554  0.72100091  1
  H  H530  1  0.67415035  0.64100074  0.96888172  1
  H  H531  1  0.51123306  0.59468843  0.82276289  1
  C  C532  1  0.73479500  0.73414892  0.59447639  1
  H  H533  1  0.62814889  0.52854244  0.53933071  1
  H  H534  1  0.70429412  0.72557996  0.57016020  1
  H  H535  1  0.50839088  0.74935200  0.64924922  1
  C  C536  1  0.55956241  0.96101587  0.61414847  1
  C  C537  1  0.63697487  0.99600785  0.97808779  1
  O  O538  1  0.71228584  0.97805694  0.58687703  1
  Cu  Cu539  1  0.66958413  0.98348311  0.70626665  1
  O  O540  1  0.62928688  0.98369743  0.84682695  1
  O  O541  1  0.71797672  0.85755070  0.72458567  1
  C  C542  1  0.52270077  0.94571187  0.63262663  1
  O  O543  1  0.67783955  0.80089815  0.67119374  1
  H  H544  1  0.57189200  0.99301197  0.67349834  1
  H  H545  1  0.72838220  0.81299152  0.91811916  1
  O  O546  1  0.63253609  0.98282160  0.55600456  1
  C  C547  1  0.50772326  0.90598853  0.55720891  1
  O  O548  1  0.70500407  0.99014292  0.87670636  1
  C  C549  1  0.72313546  0.95949480  0.94546638  1
  C  C550  1  0.70976021  0.81387058  0.67367308  1
  H  H551  1  0.50537551  0.82189868  0.64062389  1
  Cu  Cu552  1  0.71573976  0.91566044  0.64157149  1
  C  C553  1  0.57994217  0.93231574  0.51301429  1
  C  C554  1  0.74149328  0.78145997  0.64688888  1
  H  H555  1  0.50303290  0.96441013  0.70660568  1
  H  H556  1  0.79560689  0.13190672  0.28263371  1
  C  C557  1  0.91711331  0.21296098  0.18894290  1
  C  C558  1  0.92758462  0.16852487  0.14006413  1
  C  C559  1  0.87370165  0.11183353  0.15887006  1
  H  H560  1  0.88326050  0.09970130  0.26557116  1
  H  H561  1  0.82426011  0.06496427  0.17491506  1
  C  C562  1  0.84020468  0.09114577  0.10706307  1
  C  C563  1  0.89334775  0.14644876  0.06875090  1
  H  H564  1  0.88903936  0.22455053  0.18095141  1
  H  H565  1  0.87911830  0.16618160  0.34658689  1
  C  C566  1  0.96516311  0.14882208  0.13407817  1
  C  C567  1  0.79641290  0.13167510  0.40079030  1
  C  C568  1  0.98274344  0.22102835  0.25789752  1
  O  O569  1  0.97389073  0.10894491  0.07489101  1
  H  H570  1  0.92753546  0.06591740  0.08643762  1
  C  C571  1  0.77131465  0.10303075  0.47432792  1
  C  C572  1  0.94703773  0.24098333  0.24274606  1
  C  C573  1  0.86056623  0.17860808  0.44179995  1
  C  C574  1  0.82366356  0.16223785  0.47411158  1
  C  C575  1  0.99340416  0.17712590  0.20430928  1
  O  O576  1  0.76541342  0.07312686  0.04323441  1
  C  C577  1  0.77623730  0.36769308  0.48691725  1
  H  H578  1  0.88365289  0.27732107  0.33579051  1
  H  H579  1  0.99947165  0.32012447  0.25869466  1
  C  C580  1  0.80387369  0.43106947  0.14671644  1
  C  C581  1  0.75622003  0.49240816  0.14908541  1
  C  C582  1  0.90538331  0.30376902  0.35352971  1
  H  H583  1  0.99518199  0.30705982  0.01692125  1
  C  C584  1  0.79424186  0.47847132  0.14878757  1
  H  H585  1  0.86613229  0.28669559  0.01943968  1
  C  C586  1  0.94249546  0.29023859  0.30440705  1
  C  C587  1  0.92631403  0.37915351  0.46925469  1
  C  C588  1  0.99753794  0.44285852  0.42497861  1
  C  C589  1  0.99789126  0.39308324  0.41790701  1
  C  C590  1  0.85586833  0.35839480  0.44942366  1
  C  C591  1  0.83685505  0.40193856  0.42939792  1
  C  C592  1  0.97065267  0.32502324  0.31754708  1
  H  H593  1  0.78347967  0.44044412  0.42391684  1
  C  C594  1  0.96112034  0.36586452  0.39983793  1
  H  H595  1  0.85583537  0.42906606  0.39910133  1
  H  H596  1  0.97080910  0.46146524  0.41645281  1
  C  C597  1  0.77404479  0.39941985  0.15486024  1
  H  H598  1  0.83420177  0.41807515  0.11812019  1
  C  C599  1  0.89767485  0.34759152  0.41623479  1
  O  O600  1  0.97191936  0.39777708  0.04690294  1
  O  O601  1  0.99075296  0.49169054  0.10331553  1
  C  C602  1  0.79818973  0.40651992  0.44830522  1
  O  O603  1  0.80993237  0.32971024  0.14197283  1
  C  C604  1  0.77902911  0.34692739  0.14675156  1
  H  H605  1  0.91731159  0.34480195  0.09534520  1
  C  C606  1  0.78597969  0.19052294  0.69687756  1
  C  C607  1  0.85155423  0.21735941  0.64998942  1
  C  C608  1  0.78675718  0.21743102  0.82580479  1
  C  C609  1  0.81955669  0.19017801  0.61103100  1
  H  H610  1  0.83356893  0.14969433  0.76959906  1
  H  H611  1  0.76026530  0.17184644  0.65720979  1
  H  H612  1  0.77027738  0.10122937  0.59927754  1
  H  H613  1  0.89722732  0.17770839  0.84328827  1
  O  O614  1  0.77288831  0.09134120  0.79611402  1
  C  C615  1  0.84598022  0.13820838  0.87767451  1
  C  C616  1  0.78709326  0.09026975  0.92147255  1
  C  C617  1  0.96015780  0.03438333  0.90638011  1
  H  H618  1  0.97375053  0.04673063  0.80256764  1
  H  H619  1  0.93849906  0.00670391  0.87724309  1
  O  O620  1  0.87729298  0.20668735  0.53541259  1
  H  H621  1  0.92653548  0.09898665  0.91916962  1
  C  C622  1  0.88108770  0.15588243  0.92080715  1
  C  C623  1  0.85092235  0.24601306  0.77522063  1
  C  C624  1  0.81895598  0.24513301  0.86988463  1
  H  H625  1  0.76394430  0.01287889  0.75618596  1
  C  C626  1  0.82546620  0.10656383  0.96639526  1
  H  H627  1  0.94469304  0.24890938  0.97366972  1
  C  C628  1  0.97608513  0.24257371  0.94455467  1
  H  H629  1  0.98179898  0.20626157  0.89381233  1
  H  H630  1  0.83031104  0.00749382  0.70120019  1
  C  C631  1  0.94471232  0.07713667  0.98920472  1
  H  H632  1  0.98149722  0.01608304  0.97411511  1
  C  C633  1  0.88865794  0.29653612  0.94642780  1
  O  O634  1  0.75531312  0.45488558  0.80795712  1
  C  C635  1  0.83364509  0.31951425  0.50075895  1
  C  C636  1  0.97022613  0.37738713  0.92009369  1
  C  C637  1  0.88561146  0.27595126  0.80713323  1
  C  C638  1  0.79379995  0.32475711  0.51610311  1
  C  C639  1  0.91566209  0.28745650  0.70242460  1
  O  O640  1  0.99521284  0.38720582  0.82625188  1
  H  H641  1  0.84474902  0.28394348  0.52546298  1
  H  H642  1  0.82353112  0.48606704  0.81503925  1
  C  C643  1  0.75390541  0.47897617  0.70011869  1
  H  H644  1  0.98876535  0.45492843  0.67111087  1
  O  O645  1  0.92466960  0.41325172  0.56413887  1
  H  H646  1  0.89463134  0.44952438  0.74067429  1
  H  H647  1  0.98219465  0.49931618  0.81765454  1
  C  C648  1  0.85976288  0.38526600  0.72097406  1
  H  H649  1  0.86062507  0.38682701  0.84073563  1
  H  H650  1  0.86918070  0.34969023  0.69266867  1
  C  C651  1  0.94284440  0.34195172  0.87665942  1
  C  C652  1  0.88712573  0.42334973  0.65322681  1
  H  H653  1  0.87147115  0.44286418  0.56621406  1
  C  C654  1  0.99191563  0.49273061  0.69955068  1
  H  H655  1  0.91578438  0.26812473  0.59663034  1
  H  H656  1  0.77673933  0.29297206  0.54714771  1
  C  C657  1  0.94220555  0.32075584  0.73443524  1
  H  H658  1  0.83152412  0.38919100  0.67463386  1
  H  H659  1  0.81744735  0.26755938  0.96655453  1
  H  H660  1  0.96431512  0.32718026  0.65597999  1
  C  C661  1  0.91703854  0.32889931  0.98267087  1
  C  C662  1  0.88835544  0.63320581  0.26103286  1
  C  C663  1  0.86248216  0.60394027  0.33433934  1
  C  C664  1  0.92766172  0.62783102  0.28070405  1
  H  H665  1  0.94801364  0.64769511  0.20908219  1
  H  H666  1  0.83246873  0.60668117  0.31516778  1
  C  C667  1  0.87994256  0.67268680  0.14916938  1
  H  H668  1  0.82591410  0.68115114  0.27402809  1
  C  C669  1  0.84487900  0.69379464  0.19096473  1
  H  H670  1  0.80724864  0.55989027  0.30975742  1
  C  C671  1  0.94003401  0.59654590  0.39083250  1
  C  C672  1  0.81161650  0.54587402  0.41932048  1
  C  C673  1  0.98235906  0.60500773  0.41308237  1
  C  C674  1  0.87825177  0.56920240  0.43065663  1
  C  C675  1  0.77613170  0.56464802  0.05997750  1
  C  C676  1  0.77471384  0.61369498  0.04357616  1
  C  C677  1  0.83275232  0.73476841  0.11348337  1
  C  C678  1  0.91023821  0.73584929  0.40474207  1
  C  C679  1  0.91791030  0.56274175  0.46710075  1
  H  H680  1  0.91758320  0.71198071  0.30215768  1
  H  H681  1  0.93705091  0.74942743  0.45387218  1
  C  C682  1  0.84671576  0.54242489  0.49657594  1
  H  H683  1  0.85875487  0.69388352  0.45650978  1
  C  C684  1  0.78104198  0.52447505  0.48950230  1
  C  C685  1  0.90325158  0.68840056  0.03433970  1
  H  H686  1  0.93300788  0.51060572  0.08106344  1
  H  H687  1  0.93236332  0.67190949  0.01354083  1
  H  H688  1  0.75228069  0.52359140  0.44052196  1
  H  H689  1  0.81738285  0.50387808  0.12623286  1
  C  C690  1  0.98878607  0.65097915  0.46935453  1
  H  H691  1  0.98242821  0.52164068  0.46576551  1
  C  C692  1  0.99992576  0.52520872  0.01136387  1
  H  H693  1  0.84633474  0.58368432  0.01341678  1
  C  C694  1  0.89659462  0.88899692  0.35335778  1
  H  H695  1  0.91994935  0.88413799  0.44499006  1
  H  H696  1  0.89595138  0.76742163  0.35868553  1
  H  H697  1  0.77116206  0.88887755  0.06038573  1
  C  C698  1  0.77898644  0.76623343  0.28854463  1
  H  H699  1  0.87893928  0.85753426  0.36193288  1
  C  C700  1  0.97773450  0.81339197  0.02221138  1
  H  H701  1  0.79463184  0.75799976  0.39138003  1
  C  C702  1  0.79401783  0.75727901  0.14785744  1
  H  H703  1  0.87965269  0.91897504  0.39722564  1
  O  O704  1  0.89060428  0.91621398  0.06896110  1
  H  H705  1  0.93316259  0.86777007  0.17367355  1
  C  C706  1  0.91626710  0.89925352  0.20275207  1
  H  H707  1  0.93542337  0.92985772  0.20293001  1
  H  H708  1  0.96852147  0.77590191  0.01393454  1
  C  C709  1  0.85799026  0.75282691  0.01065320  1
  C  C710  1  0.77548414  0.77388002  0.01679218  1
  O  O711  1  0.88901012  0.67749666  0.63310195  1
  C  C712  1  0.82283826  0.67984605  0.72006441  1
  C  C713  1  0.86201645  0.66310219  0.72000049  1
  C  C714  1  0.80077298  0.71424655  0.63170913  1
  H  H715  1  0.88074025  0.52694877  0.70658522  1
  C  C716  1  0.85368108  0.52150629  0.64527920  1
  H  H717  1  0.97225816  0.56184472  0.61759974  1
  C  C718  1  0.97265828  0.52491344  0.58494627  1
  H  H719  1  0.93898769  0.64253616  0.70709585  1
  C  C720  1  0.93735203  0.61470956  0.79489949  1
  C  C721  1  0.79439126  0.66558760  0.81952024  1
  C  C722  1  0.86579014  0.62565577  0.82609182  1
  C  C723  1  0.90173920  0.59942824  0.86061728  1
  C  C724  1  0.96790772  0.72037780  0.80216973  1
  C  C725  1  0.97024652  0.59377110  0.85056891  1
  O  O726  1  0.92942532  0.52672031  0.54780765  1
  H  H727  1  0.87127525  0.74312675  0.59034697  1
  C  C728  1  0.76263610  0.70100877  0.58564854  1
  H  H729  1  0.76585311  0.68038606  0.81143180  1
  H  H730  1  0.95812347  0.69784016  0.89275455  1
  C  C731  1  0.78688132  0.50394175  0.62708327  1
  C  C732  1  0.80198659  0.63222180  0.92743549  1
  C  C733  1  0.83919975  0.61151075  0.92530972  1
  C  C734  1  0.89223623  0.73201461  0.97001734  1
  C  C735  1  0.82189890  0.50160835  0.70570558  1
  C  C736  1  0.89870943  0.55562517  0.94581213  1
  H  H737  1  0.87149619  0.54043396  0.98009789  1
  C  C738  1  0.97000807  0.55598968  0.95069952  1
  H  H739  1  0.99697823  0.60892688  0.80247342  1
  H  H740  1  0.79455468  0.54175316  0.99627325  1
  C  C741  1  0.93386400  0.53813244  0.99302153  1
  H  H742  1  0.75714426  0.66570938  0.55219559  1
  C  C743  1  0.88187942  0.71329028  0.51672595  1
  H  H744  1  0.96452074  0.67127597  0.50622587  1
  C  C745  1  0.94423614  0.75766781  0.76590909  1
  H  H746  1  0.87524745  0.97272959  0.58078110  1
  H  H747  1  0.83642190  0.77533578  0.69874561  1
  C  C748  1  0.95456910  0.84918839  0.97168865  1
  C  C749  1  0.80762477  0.76301473  0.66687685  1
  H  H750  1  0.88447858  0.83076634  0.76377307  1
  H  H751  1  0.98983676  0.93422014  0.71039801  1
  C  C752  1  0.97138667  0.89521944  0.98873506  1
  C  C753  1  0.78354868  0.91660766  0.97932303  1
  H  H754  1  0.78689796  0.76377064  0.91281038  1
  C  C755  1  0.77914439  0.79642185  0.67599598  1
  C  C756  1  0.82078681  0.91181600  0.93567196  1
  H  H757  1  0.78373366  0.83298413  0.71865217  1
  C  C758  1  0.81796551  0.98055554  0.77096671  1
  H  H759  1  0.92570490  0.84464733  0.93234433  1
  C  C760  1  0.88142205  0.94344303  0.82068582  1
  C  C761  1  0.88381131  0.79815377  0.83571203  1
  H  H762  1  0.95130781  0.78354977  0.67612678  1
  C  C763  1  0.93135002  0.95669311  0.67121597  1
  C  C764  1  0.78040498  0.98387422  0.80703547  1
  C  C765  1  0.83967195  0.94454265  0.83626945  1
  H  H766  1  0.83858557  0.88202503  0.97895335  1
  C  C767  1  0.95958357  0.93801994  0.75122575  1
  C  C768  1  0.76279485  0.95476446  0.91526089  1
  C  C769  1  0.91028119  0.76162573  0.84844863  1
  C  C770  1  0.89305512  0.96063612  0.67343267  1
  C  C771  1  0.94511415  0.92415138  0.89847308  1
  O  O772  1  0.85233911  0.79885782  0.91468737  1
  C  C773  1  0.90595382  0.92645714  0.93487929  1
