# generated using pymatgen
data_CuH15C22O5
_symmetry_space_group_name_H-M   'P 1'
_cell_length_a   33.07724489
_cell_length_b   29.17810548
_cell_length_c   10.32802310
_cell_angle_alpha   90.00000000
_cell_angle_beta   90.00000000
_cell_angle_gamma   90.00000000
_symmetry_Int_Tables_number   1
_chemical_formula_structural   CuH15C22O5
_chemical_formula_sum   'Cu18 H270 C396 O90'
_cell_volume   9967.89877423
_cell_formula_units_Z   18
loop_
 _symmetry_equiv_pos_site_id
 _symmetry_equiv_pos_as_xyz
  1  'x, y, z'
loop_
 _atom_site_type_symbol
 _atom_site_label
 _atom_site_symmetry_multiplicity
 _atom_site_fract_x
 _atom_site_fract_y
 _atom_site_fract_z
 _atom_site_occupancy
  C  C0  1  0.11710170  0.17836352  0.32618520  1
  C  C1  1  0.08004274  0.20641786  0.35127007  1
  C  C2  1  0.12052558  0.15981879  0.19738356  1
  C  C3  1  0.18703306  0.12808667  0.24926888  1
  C  C4  1  0.15366373  0.13368330  0.16459973  1
  H  H5  1  0.09504312  0.16216073  0.12907605  1
  C  C6  1  0.22206555  0.10521418  0.19798071  1
  C  C7  1  0.03844039  0.19002704  0.35098659  1
  O  O8  1  0.02452210  0.14896722  0.33708840  1
  C  C9  1  0.18325326  0.14517793  0.37658058  1
  H  H10  1  0.07471493  0.11246733  0.24534291  1
  C  C11  1  0.05483485  0.10729383  0.32668732  1
  C  C12  1  0.01069094  0.22678372  0.36745229  1
  H  H13  1  0.03481916  0.09874682  0.07357611  1
  C  C14  1  0.15113969  0.17266355  0.40723819  1
  H  H15  1  0.19792638  0.04597997  0.35024237  1
  O  O16  1  0.21624206  0.09168866  0.08207372  1
  H  H17  1  0.15444185  0.11692485  0.06645487  1
  H  H18  1  0.20873811  0.13749739  0.44536940  1
  C  C19  1  0.03895364  0.05736169  0.33540061  1
  H  H20  1  0.06281533  0.03041659  0.31650738  1
  C  C21  1  0.24615076  0.20891068  0.07807634  1
  C  C22  1  0.17014729  0.02408318  0.36774132  1
  C  C23  1  0.10830309  0.00537265  0.49255511  1
  H  H24  1  0.07255957  0.11601305  0.41506813  1
  C  C25  1  0.14248707  0.03267216  0.46828619  1
  H  H26  1  0.02387804  0.05338633  0.43199683  1
  H  H27  1  0.00421520  0.24125877  0.13804818  1
  H  H28  1  0.06841912  0.24254439  0.00811185  1
  H  H29  1  0.01541750  0.05367124  0.25732266  1
  C  C30  1  0.00344349  0.24894788  0.02986612  1
  H  H31  1  0.15195088  0.19071859  0.49965619  1
  H  H32  1  0.13813153  0.25990820  0.03889478  1
  C  C33  1  0.22691380  0.42899481  0.34199362  1
  H  H34  1  0.12285808  0.26184976  0.35388262  1
  C  C35  1  0.04846119  0.41451838  0.44411809  1
  C  C36  1  0.18792493  0.41764092  0.30827458  1
  C  C37  1  0.01772935  0.27336832  0.37256951  1
  H  H38  1  0.17948724  0.41270689  0.20422177  1
  C  C39  1  0.23049865  0.25451651  0.05067366  1
  C  C40  1  0.20360654  0.34458817  0.01845414  1
  C  C41  1  0.20659668  0.32523117  0.14675990  1
  C  C42  1  0.05948144  0.28585455  0.37726964  1
  H  H43  1  0.20075509  0.34734108  0.23734454  1
  C  C44  1  0.21986219  0.28185948  0.16004298  1
  C  C45  1  0.08953488  0.25233330  0.36104936  1
  H  H46  1  0.14848189  0.48542918  0.37483449  1
  C  C47  1  0.04182968  0.36708119  0.42703809  1
  C  C48  1  0.11543710  0.40236983  0.40742192  1
  H  H49  1  0.21729382  0.26442656  0.25661267  1
  H  H50  1  0.13643680  0.33459192  0.37562606  1
  H  H51  1  0.12610089  0.34774669  0.02198196  1
  O  O52  1  0.11991906  0.47061808  0.12099275  1
  C  C53  1  0.16017671  0.41523482  0.41481157  1
  C  C54  1  0.11049593  0.35587021  0.38450796  1
  O  O55  1  0.05364283  0.47037842  0.14624233  1
  C  C56  1  0.08874711  0.49066613  0.12511140  1
  Cu  Cu57  1  0.02936898  0.42098790  0.04782220  1
  C  C58  1  0.07228297  0.33570718  0.39210618  1
  C  C59  1  0.08686482  0.43714314  0.43547123  1
  O  O60  1  0.09099571  0.48097791  0.45946245  1
  H  H61  1  0.01402534  0.35369754  0.44714309  1
  C  C62  1  0.00949471  0.43835207  0.47733826  1
  C  C63  1  0.00364606  0.48706245  0.45959869  1
  H  H64  1  0.00213876  0.28685087  0.01849532  1
  C  C65  1  0.23780315  0.43955262  0.47262898  1
  C  C66  1  0.20474139  0.12862635  0.73608857  1
  C  C67  1  0.16598277  0.13811239  0.80893308  1
  C  C68  1  0.13741208  0.10404444  0.84296402  1
  C  C69  1  0.10039447  0.11917948  0.88740377  1
  C  C70  1  0.15798937  0.18547612  0.81544748  1
  H  H71  1  0.14417948  0.06832473  0.82929575  1
  H  H72  1  0.19919292  0.05600759  0.69096379  1
  C  C73  1  0.21696613  0.08654406  0.67434280  1
  C  C74  1  0.07035819  0.04994944  0.79389702  1
  C  C75  1  0.07120147  0.07867021  0.90326122  1
  O  O76  1  0.08985706  0.04744840  0.68597301  1
  H  H77  1  0.17651459  0.21316539  0.77512048  1
  C  C78  1  0.11947052  0.19577223  0.86110892  1
  C  C79  1  0.08827823  0.16696727  0.90275334  1
  H  H80  1  0.22047788  0.20072542  0.73485567  1
  C  C81  1  0.23001300  0.16645411  0.70563724  1
  O  O82  1  0.05166296  0.17868284  0.94791492  1
  H  H83  1  0.04577626  0.02577151  0.78497943  1
  H  H84  1  0.03974168  0.24629636  0.85787480  1
  C  C85  1  0.11528781  0.24793964  0.84472370  1
  C  C86  1  0.04050162  0.23019024  0.95783338  1
  Cu  Cu87  1  0.24145166  0.12168099  0.94832790  1
  H  H88  1  0.14650268  0.05957965  0.53998884  1
  H  H89  1  0.09345856  0.24686075  0.64933130  1
  H  H90  1  0.22035508  0.00556631  0.69958734  1
  C  C91  1  0.04057118  0.07245613  0.99566603  1
  C  C92  1  0.01140445  0.03692393  0.97748412  1
  C  C93  1  0.08095615  0.00697041  0.60086522  1
  H  H94  1  0.22929059  0.24776693  0.84161743  1
  H  H95  1  0.01128192  0.01337620  0.89411504  1
  C  C96  1  0.12644547  0.49851396  0.81967520  1
  C  C97  1  0.19620401  0.46785324  0.88200285  1
  H  H98  1  0.17832626  0.26966996  0.59045839  1
  H  H99  1  0.07232975  0.33142634  0.64822177  1
  C  C100  1  0.23435289  0.48803555  0.92026126  1
  H  H101  1  0.21161211  0.33013721  0.81661867  1
  H  H102  1  0.18948926  0.34680661  0.52167640  1
  C  C103  1  0.08884583  0.31509596  0.73038170  1
  H  H104  1  0.15609843  0.40738582  0.90335027  1
  C  C105  1  0.09625649  0.34167604  0.84078611  1
  C  C106  1  0.18626642  0.42288108  0.92550982  1
  C  C107  1  0.09943477  0.27006095  0.73211652  1
  O  O108  1  0.05159737  0.39778555  0.75600597  1
  C  C109  1  0.22578414  0.27078971  0.92345839  1
  H  H110  1  0.21693217  0.44789831  0.67639120  1
  C  C111  1  0.21593431  0.32438133  0.54917983  1
  C  C112  1  0.07460717  0.38493507  0.84854816  1
  H  H113  1  0.24443758  0.34311753  0.56124598  1
  H  H114  1  0.03760468  0.47999032  0.67346393  1
  H  H115  1  0.14501318  0.42975228  0.61193415  1
  C  C116  1  0.21431852  0.31567643  0.91157779  1
  O  O117  1  0.07759268  0.40513573  0.95267392  1
  C  C118  1  0.21020597  0.43785893  0.57664685  1
  C  C119  1  0.12553196  0.27663827  0.94953845  1
  C  C120  1  0.21040818  0.28166300  0.58507023  1
  C  C121  1  0.16949917  0.42802323  0.54524916  1
  C  C122  1  0.11891139  0.32285936  0.94364018  1
  H  H123  1  0.10960746  0.47267227  0.87775413  1
  H  H124  1  0.23543254  0.25937955  0.62351225  1
  C  C125  1  0.21483339  0.39480202  0.98784271  1
  C  C126  1  0.07671986  0.63969777  0.12168852  1
  C  C127  1  0.07546855  0.68904588  0.14942413  1
  C  C128  1  0.04402611  0.60963734  0.15894614  1
  C  C129  1  0.10789733  0.71543158  0.10409636  1
  C  C130  1  0.12855767  0.55553207  0.38221353  1
  C  C131  1  0.04747032  0.56280718  0.15148239  1
  C  C132  1  0.11785900  0.56870464  0.08764243  1
  C  C133  1  0.08355495  0.54158741  0.11511268  1
  C  C134  1  0.04270262  0.71148250  0.22064878  1
  C  C135  1  0.11363465  0.61535955  0.09412181  1
  H  H136  1  0.14765922  0.55158402  0.07250973  1
  H  H137  1  0.11491871  0.57892126  0.45674191  1
  H  H138  1  0.10671913  0.55626099  0.29820199  1
  H  H139  1  0.01445017  0.69536730  0.24968483  1
  H  H140  1  0.02090590  0.54354468  0.18646886  1
  H  H141  1  0.01587231  0.62549851  0.19963671  1
  H  H142  1  0.15925305  0.56837985  0.34638286  1
  O  O143  1  0.23527410  0.74492574  0.36629766  1
  C  C144  1  0.23138991  0.67018290  0.46901483  1
  H  H145  1  0.14084500  0.63599596  0.07878865  1
  H  H146  1  0.03171074  0.50716488  0.43256736  1
  H  H147  1  0.00730917  0.62137969  0.47127267  1
  H  H148  1  0.05490509  0.62557335  0.40895112  1
  C  C149  1  0.13087144  0.50677647  0.44282441  1
  H  H150  1  0.18164280  0.71807149  0.48168429  1
  O  O151  1  0.14125247  0.70480915  0.04181227  1
  C  C152  1  0.24874764  0.62818499  0.49022112  1
  H  H153  1  0.24262506  0.99065268  0.27293692  1
  C  C154  1  0.11212579  0.76401354  0.13872547  1
  H  H155  1  0.14775470  0.85847104  0.18499850  1
  H  H156  1  0.11946390  0.92968455  0.24468320  1
  C  C157  1  0.05294615  0.75678020  0.22734859  1
  C  C158  1  0.08142252  0.79025197  0.20407377  1
  H  H159  1  0.22444248  0.86359148  0.15663338  1
  C  C160  1  0.23100087  0.79385783  0.08396328  1
  C  C161  1  0.18977881  0.97116319  0.17029127  1
  C  C162  1  0.16231787  0.98820564  0.27599501  1
  C  C163  1  0.10074191  0.96965686  0.40079863  1
  H  H164  1  0.08178437  0.82635584  0.23337199  1
  C  C165  1  0.16624506  0.83038709  0.14039357  1
  O  O166  1  0.19233900  0.81927245  0.45400144  1
  C  C167  1  0.23117886  0.97883971  0.18452730  1
  C  C168  1  0.20842600  0.83145413  0.13202771  1
  C  C169  1  0.16906247  0.96050968  0.05197981  1
  H  H170  1  0.07476980  0.94808211  0.41573853  1
  O  O171  1  0.13012555  0.95615374  0.04400470  1
  C  C172  1  0.17666127  0.85979714  0.45818117  1
  O  O173  1  0.16368936  0.87984928  0.36592885  1
  C  C174  1  0.12710918  0.96118721  0.30107577  1
  C  C175  1  0.14735213  0.78767567  0.10842497  1
  C  C176  1  0.21515429  0.75535526  0.03150221  1
  C  C177  1  0.17049340  0.75213941  0.02743792  1
  C  C178  1  0.10544555  0.53525160  0.75848241  1
  C  C179  1  0.18846030  0.53625551  0.74244465  1
  C  C180  1  0.12243850  0.57338235  0.68991036  1
  C  C181  1  0.16526060  0.57135999  0.69116281  1
  C  C182  1  0.18714111  0.60728445  0.61349140  1
  H  H183  1  0.22134995  0.53487715  0.72730442  1
  O  O184  1  0.10299779  0.60669467  0.63037444  1
  H  H185  1  0.03867212  0.61499838  0.69450267  1
  C  C186  1  0.06016666  0.53708216  0.79153721  1
  C  C187  1  0.05177779  0.57555975  0.87203393  1
  C  C188  1  0.17001119  0.65245677  0.58471815  1
  C  C189  1  0.22556686  0.59611683  0.56107009  1
  H  H190  1  0.14010062  0.66300647  0.62738202  1
  C  C191  1  0.05598461  0.60402871  0.61229824  1
  H  H192  1  0.07611417  0.59870902  0.91328106  1
  C  C193  1  0.01116973  0.58626682  0.90495851  1
  H  H194  1  0.04789376  0.56739786  0.59279769  1
  H  H195  1  0.00515215  0.61930315  0.95690053  1
  H  H196  1  0.23647990  0.55968737  0.56041807  1
  H  H197  1  0.24221266  0.52469063  0.89705486  1
  C  C198  1  0.02959914  0.50622334  0.74598984  1
  C  C199  1  0.16877536  0.50103392  0.80974198  1
  C  C200  1  0.19226028  0.68361457  0.50929343  1
  H  H201  1  0.23214007  0.72776844  0.99184192  1
  H  H202  1  0.14501956  0.50787098  0.53878439  1
  H  H203  1  0.03912572  0.66910804  0.51787911  1
  C  C204  1  0.03846956  0.63236439  0.50120964  1
  C  C205  1  0.24775406  0.95455621  0.58187099  1
  H  H206  1  0.22786325  0.92971766  0.64004496  1
  H  H207  1  0.20910959  0.82369766  0.68499414  1
  C  C208  1  0.19004207  0.92864152  0.82202888  1
  H  H209  1  0.16091242  0.75085267  0.92535032  1
  H  H210  1  0.06444618  0.88290125  0.95876072  1
  C  C211  1  0.24047307  0.99963631  0.61510966  1
  H  H212  1  0.04521488  0.93956906  0.95163728  1
  H  H213  1  0.05654161  0.91038427  0.80558200  1
  H  H214  1  0.15766862  0.98291714  0.71178352  1
  C  C215  1  0.20502075  0.88244217  0.81125583  1
  H  H216  1  0.22032565  0.86766404  0.89565902  1
  C  C217  1  0.17870800  0.87987332  0.59347593  1
  H  H218  1  0.13131467  0.90525201  0.89370824  1
  C  C219  1  0.11137385  0.93514993  0.91418586  1
  C  C220  1  0.24010632  0.95443825  0.96367177  1
  C  C221  1  0.16775278  0.94735380  0.71746691  1
  C  C222  1  0.19911738  0.95112665  0.95461404  1
  O  O223  1  0.05439413  0.98196726  0.62577476  1
  H  H224  1  0.11598936  0.96209273  0.83770262  1
  C  C225  1  0.19777855  0.85750009  0.69531892  1
  C  C226  1  0.16279495  0.92529204  0.59580071  1
  C  C227  1  0.06832826  0.91589531  0.90555434  1
  H  H228  1  0.15140379  0.94305615  0.50716535  1
  C  C229  1  0.39099118  0.07912367  0.17263713  1
  C  C230  1  0.40202022  0.16568816  0.19925601  1
  C  C231  1  0.43512884  0.15734449  0.15960784  1
  C  C232  1  0.41587124  0.11316864  0.23525170  1
  C  C233  1  0.38913773  0.03515019  0.23124716  1
  H  H234  1  0.44767495  0.16387477  0.06708581  1
  H  H235  1  0.42875240  0.10313068  0.33300297  1
  O  O236  1  0.33415100  0.19492747  0.24451959  1
  C  C237  1  0.36788583  0.20195345  0.18022222  1
  Cu  Cu238  1  0.29532484  0.15039497  0.24530498  1
  H  H239  1  0.31232413  0.03579371  0.16698079  1
  H  H240  1  0.37563290  0.08660260  0.08206028  1
  C  C241  1  0.47532162  0.05204272  0.08522911  1
  C  C242  1  0.41463183  0.02302532  0.34611772  1
  H  H243  1  0.30762135  0.05120874  0.41325879  1
  H  H244  1  0.48491404  0.06750665  0.18376062  1
  H  H245  1  0.27261372  0.21422502  0.43154419  1
  O  O246  1  0.37425155  0.23259379  0.11159867  1
  H  H247  1  0.44702679  0.03326827  0.10114787  1
  O  O248  1  0.43772994  0.04229084  0.42026028  1
  C  C249  1  0.32677067  0.00269995  0.14932088  1
  C  C250  1  0.29173583  0.02300322  0.45812117  1
  H  H251  1  0.49909257  0.02815742  0.05169786  1
  H  H252  1  0.38889229  0.16036596  0.40359298  1
  O  O253  1  0.25610954  0.10213232  0.25405462  1
  O  O254  1  0.25606016  0.19774108  0.19097991  1
  H  H255  1  0.40091411  0.10888381  0.49597105  1
  C  C256  1  0.31226916  0.49403560  0.13641014  1
  H  H257  1  0.26466348  0.34292309  0.19161860  1
  O  O258  1  0.39392494  0.46394534  0.43835137  1
  O  O259  1  0.30499439  0.44706308  0.40919909  1
  O  O260  1  0.28736805  0.39130087  0.07048779  1
  C  C261  1  0.32228143  0.30961544  0.14112139  1
  Cu  Cu262  1  0.35698069  0.41520402  0.44290170  1
  H  H263  1  0.30930032  0.27295786  0.14913607  1
  H  H264  1  0.25095399  0.42735479  0.26111452  1
  H  H265  1  0.33685114  0.31909582  0.22831609  1
  H  H266  1  0.29778834  0.48230281  0.23086840  1
  H  H267  1  0.34574825  0.30989398  0.06257285  1
  H  H268  1  0.26918848  0.32571749  0.01974043  1
  H  H269  1  0.45965808  0.48605173  0.36759524  1
  C  C270  1  0.28620995  0.34276726  0.10710690  1
  H  H271  1  0.30137130  0.28882811  0.39021035  1
  C  C272  1  0.25462016  0.40998569  0.02234380  1
  C  C273  1  0.29728130  0.48311430  0.00968214  1
  O  O274  1  0.33226592  0.36164510  0.46951229  1
  C  C275  1  0.30266544  0.27323076  0.49331802  1
  C  C276  1  0.28012133  0.45121532  0.49863042  1
  C  C277  1  0.28616124  0.21072242  0.64272352  1
  C  C278  1  0.28050475  0.11935808  0.58739369  1
  H  H279  1  0.30861771  0.21607970  0.83876953  1
  C  C280  1  0.42808481  0.10738571  0.73970137  1
  C  C281  1  0.43866758  0.14796359  0.81187797  1
  C  C282  1  0.38940483  0.09039509  0.75494521  1
  C  C283  1  0.26743509  0.16405894  0.64185380  1
  C  C284  1  0.36165508  0.10958516  0.84248374  1
  O  O285  1  0.30859106  0.05571080  0.83105019  1
  H  H286  1  0.34970777  0.15153016  0.66595424  1
  C  C287  1  0.34797819  0.15283244  0.55548023  1
  C  C288  1  0.30395326  0.23513304  0.74767813  1
  C  C289  1  0.40951380  0.17079038  0.89253457  1
  H  H290  1  0.46002033  0.20918029  0.63038914  1
  O  O291  1  0.31538047  0.11412678  0.53405418  1
  C  C292  1  0.32098908  0.09009913  0.87763241  1
  C  C293  1  0.26199081  0.03590202  0.55780686  1
  H  H294  1  0.44855058  0.09133011  0.66768370  1
  H  H295  1  0.38317223  0.06137082  0.69139968  1
  C  C296  1  0.47891535  0.17103259  0.81242200  1
  C  C297  1  0.48360485  0.19996673  0.70067691  1
  C  C298  1  0.37151307  0.15034922  0.91228581  1
  C  C299  1  0.25291930  0.08252963  0.60911530  1
  C  C300  1  0.39065016  0.14636549  0.50234931  1
  O  O301  1  0.29739185  0.11173496  0.96392034  1
  H  H302  1  0.41749681  0.20296133  0.94178724  1
  H  H303  1  0.34977653  0.16844306  0.97850180  1
  C  C304  1  0.28680441  0.23061579  0.51450293  1
  H  H305  1  0.47964739  0.07968643  0.88642258  1
  H  H306  1  0.41428520  0.16702363  0.55953981  1
  O  O307  1  0.25116085  0.18629137  0.97324624  1
  H  H308  1  0.43989016  0.10697109  0.98693787  1
  C  C309  1  0.47060854  0.09081531  0.98728000  1
  H  H310  1  0.34019689  0.18819084  0.52557861  1
  Cu  Cu311  1  0.34007368  0.43492252  0.67969294  1
  C  C312  1  0.25869271  0.45698930  0.98224033  1
  H  H313  1  0.29592268  0.49366090  0.79744952  1
  O  O314  1  0.29140878  0.46039712  0.61426653  1
  C  C315  1  0.31818567  0.29839554  0.60195500  1
  C  C316  1  0.40218415  0.48536133  0.54288045  1
  O  O317  1  0.37987707  0.48202794  0.64161372  1
  C  C318  1  0.31999315  0.27895325  0.72778933  1
  C  C319  1  0.32870447  0.34652444  0.58514288  1
  H  H320  1  0.33490341  0.29659218  0.80833480  1
  O  O321  1  0.33806124  0.37040077  0.68249051  1
  Cu  Cu322  1  0.41662701  0.64147911  0.20486188  1
  O  O323  1  0.41176188  0.57980855  0.14891412  1
  O  O324  1  0.40331377  0.70609274  0.18827379  1
  O  O325  1  0.47119899  0.64598956  0.16310622  1
  C  C326  1  0.39874982  0.72803978  0.08050721  1
  O  O327  1  0.28900864  0.70227769  0.36878537  1
  C  C328  1  0.48780071  0.64380305  0.44904234  1
  C  C329  1  0.34559973  0.52211207  0.14243684  1
  C  C330  1  0.48618345  0.64253990  0.05142674  1
  H  H331  1  0.27870085  0.61837188  0.44616260  1
  C  C332  1  0.48743199  0.74383329  0.42657986  1
  H  H333  1  0.48593149  0.60640355  0.45950046  1
  Cu  Cu334  1  0.33748425  0.68828432  0.45933025  1
  C  C335  1  0.45259350  0.72084173  0.46000026  1
  C  C336  1  0.45467920  0.67239739  0.46468840  1
  C  C337  1  0.25339993  0.70893981  0.39892755  1
  H  H338  1  0.42399061  0.73949238  0.47468161  1
  C  C339  1  0.39745772  0.57203406  0.03732214  1
  C  C340  1  0.36383305  0.53847839  0.03129444  1
  C  C341  1  0.46704431  0.50784323  0.45410531  1
  H  H342  1  0.35731089  0.53211800  0.24053503  1
  C  C343  1  0.41349479  0.64829031  0.48704544  1
  O  O344  1  0.40951728  0.60725834  0.47752431  1
  H  H345  1  0.47172267  0.75855208  0.21849591  1
  C  C346  1  0.49001870  0.76139383  0.01173154  1
  C  C347  1  0.38419273  0.84215125  0.20553388  1
  Cu  Cu348  1  0.25024061  0.80351171  0.43267369  1
  C  C349  1  0.25730991  0.96867484  0.08174387  1
  C  C350  1  0.29845476  0.97720072  0.42317699  1
  Cu  Cu351  1  0.32107754  0.82600884  0.30789168  1
  O  O352  1  0.30509139  0.88516809  0.35910658  1
  C  C353  1  0.39216354  0.77609088  0.08166773  1
  C  C354  1  0.36769419  0.99575800  0.16713092  1
  O  O355  1  0.29769813  0.76049702  0.06433156  1
  H  H356  1  0.44863431  0.91246633  0.02226376  1
  C  C357  1  0.37510228  0.86935311  0.08845336  1
  H  H358  1  0.30514494  0.89322868  0.05164123  1
  C  C359  1  0.39245819  0.79769464  0.20717158  1
  H  H360  1  0.32090687  0.96929440  0.35227426  1
  C  C361  1  0.45336088  0.91089910  0.13250323  1
  C  C362  1  0.27765744  0.79227488  0.09376292  1
  C  C363  1  0.36342719  0.91840972  0.10620554  1
  C  C364  1  0.28077309  0.89364383  0.45213625  1
  C  C365  1  0.49854660  0.75879252  0.15930776  1
  O  O366  1  0.29326522  0.82818573  0.15476134  1
  O  O367  1  0.35267269  0.82069293  0.46505718  1
  H  H368  1  0.39611498  0.77939956  0.30128036  1
  H  H369  1  0.48877502  0.78143508  0.41729204  1
  C  C370  1  0.32220037  0.92287851  0.08388026  1
  H  H371  1  0.38206619  0.86139933  0.29845619  1
  O  O372  1  0.42954383  0.95531961  0.16039690  1
  C  C373  1  0.39004116  0.95458996  0.14477861  1
  H  H374  1  0.43803629  0.88142544  0.17392751  1
  C  C375  1  0.30304342  0.96535962  0.10555531  1
  H  H376  1  0.42035145  0.98457409  0.37532849  1
  H  H377  1  0.49927323  0.90982728  0.29475871  1
  C  C378  1  0.49648229  0.90842969  0.18747898  1
  C  C379  1  0.27567718  0.94112195  0.48909162  1
  H  H380  1  0.36151073  0.54495374  0.81745680  1
  H  H381  1  0.45688876  0.71989050  0.80007630  1
  H  H382  1  0.38567465  0.72196972  0.70258124  1
  C  C383  1  0.45085747  0.52980097  0.68340640  1
  C  C384  1  0.48757535  0.55387597  0.68614838  1
  C  C385  1  0.34657579  0.52950817  0.90455720  1
  Cu  Cu386  1  0.41087866  0.64926437  0.94721013  1
  O  O387  1  0.41307413  0.58974267  0.93875025  1
  O  O388  1  0.38371792  0.67470497  0.53213307  1
  H  H389  1  0.42919477  0.53043238  0.76466828  1
  O  O390  1  0.46755372  0.65647243  0.95360741  1
  H  H391  1  0.49497878  0.57472610  0.77262794  1
  O  O392  1  0.39805378  0.70705956  0.97204978  1
  C  C393  1  0.31379833  0.50084128  0.88986761  1
  C  C394  1  0.44702503  0.74875038  0.73535184  1
  C  C395  1  0.40822670  0.74916935  0.68766948  1
  C  C396  1  0.44071449  0.50921500  0.56134691  1
  H  H397  1  0.46773934  0.73467239  0.98042619  1
  H  H398  1  0.41320262  0.84857615  0.50617898  1
  C  C399  1  0.37456225  0.84729079  0.96516892  1
  H  H400  1  0.47432647  0.79444569  0.98540573  1
  O  O401  1  0.33632673  0.75204942  0.53432639  1
  O  O402  1  0.26439607  0.86063471  0.51335294  1
  C  C403  1  0.47483382  0.78464312  0.70395281  1
  C  C404  1  0.42605469  0.82098358  0.56705686  1
  C  C405  1  0.38279407  0.80081361  0.96825697  1
  C  C406  1  0.36199325  0.78306700  0.52333186  1
  H  H407  1  0.36332520  0.86485665  0.87660341  1
  C  C408  1  0.46438122  0.82078086  0.61946044  1
  C  C409  1  0.39969484  0.78377048  0.59465045  1
  H  H410  1  0.26259862  0.94178296  0.88671733  1
  H  H411  1  0.48423138  0.84676638  0.58901279  1
  H  H412  1  0.38367726  0.77931637  0.87609970  1
  O  O413  1  0.69676469  0.10153406  0.22987179  1
  C  C414  1  0.69582408  0.13220394  0.15120549  1
  H  H415  1  0.62760671  0.07991233  0.15583609  1
  C  C416  1  0.62156837  0.11302972  0.10204904  1
  C  C417  1  0.65566488  0.14225257  0.08882893  1
  H  H418  1  0.56103191  0.10318671  0.07218760  1
  C  C419  1  0.58544383  0.12886129  0.04961530  1
  O  O420  1  0.72919291  0.15473752  0.12004800  1
  H  H421  1  0.56146877  0.03896342  0.41090652  1
  H  H422  1  0.64503873  0.14321609  0.41936295  1
  H  H423  1  0.57830595  0.14964123  0.33028936  1
  O  O424  1  0.56712533  0.00942231  0.19918700  1
  C  C425  1  0.60066790  0.18028899  0.31392414  1
  H  H426  1  0.61546389  0.17737296  0.21580339  1
  C  C427  1  0.65360517  0.18545446  0.02260374  1
  H  H428  1  0.73192941  0.01212117  0.19825409  1
  H  H429  1  0.74435944  0.07809974  0.03790911  1
  O  O430  1  0.66732715  0.21026684  0.45063741  1
  C  C431  1  0.62872785  0.17711299  0.43105562  1
  C  C432  1  0.55333011  0.00445232  0.45477537  1
  H  H433  1  0.57961864  0.21018244  0.31259405  1
  C  C434  1  0.67956424  0.42450156  0.01225902  1
  H  H435  1  0.68019295  0.41459115  0.22213962  1
  H  H436  1  0.63650491  0.43593058  0.43249583  1
  H  H437  1  0.73257308  0.46957276  0.12065085  1
  H  H438  1  0.68642845  0.46403272  0.40705877  1
  O  O439  1  0.73660536  0.43375395  0.36973640  1
  C  C440  1  0.73740520  0.26980844  0.49074393  1
  C  C441  1  0.71447156  0.34423646  0.41755423  1
  H  H442  1  0.69411551  0.33096154  0.21350343  1
  C  C443  1  0.70527491  0.49092022  0.11473383  1
  O  O444  1  0.72176445  0.26161235  0.10764653  1
  C  C445  1  0.69075631  0.34966580  0.12285786  1
  C  C446  1  0.67183642  0.47540971  0.04611368  1
  H  H447  1  0.64700485  0.47163986  0.30055338  1
  C  C448  1  0.65278473  0.46692598  0.40303756  1
  C  C449  1  0.70552792  0.30031760  0.46148574  1
  H  H450  1  0.69194068  0.36951267  0.38475101  1
  C  C451  1  0.68095340  0.39708094  0.12670372  1
  C  C452  1  0.69856401  0.33024357  0.00245302  1
  H  H453  1  0.67414004  0.28824291  0.48051205  1
  H  H454  1  0.70971038  0.12222842  0.79215525  1
  C  C455  1  0.71561861  0.15278502  0.72741089  1
  C  C456  1  0.55481444  0.22167203  0.80748934  1
  C  C457  1  0.52192405  0.21932373  0.72513876  1
  C  C458  1  0.68806289  0.16117735  0.62919868  1
  O  O459  1  0.72320052  0.04081468  0.78996173  1
  H  H460  1  0.62671921  0.17016725  0.80054441  1
  C  C461  1  0.65321046  0.12856660  0.63756693  1
  C  C462  1  0.62312170  0.13906331  0.73562819  1
  H  H463  1  0.56023772  0.12958472  0.77700971  1
  C  C464  1  0.58189603  0.07732564  0.64582081  1
  C  C465  1  0.58654764  0.11706019  0.72271509  1
  C  C466  1  0.54259774  0.05505287  0.64033314  1
  O  O467  1  0.51535102  0.06835878  0.70662044  1
  C  C468  1  0.64900256  0.08755426  0.55943937  1
  O  O469  1  0.53967965  0.00780690  0.56616260  1
  C  C470  1  0.61560070  0.06058686  0.57308786  1
  C  C471  1  0.69169741  0.20075258  0.54028801  1
  C  C472  1  0.72850198  0.22626035  0.56117443  1
  H  H473  1  0.61122692  0.23959062  0.94135875  1
  C  C474  1  0.54694682  0.18577734  0.90279665  1
  C  C475  1  0.50981254  0.16228650  0.90623324  1
  C  C476  1  0.61660213  0.20426317  0.98133443  1
  C  C477  1  0.58182040  0.17295983  0.98238239  1
  H  H478  1  0.61302022  0.17902618  0.52602261  1
  O  O479  1  0.50588952  0.12867571  0.99060872  1
  H  H480  1  0.58331481  0.23760273  0.79106500  1
  C  C481  1  0.74291804  0.00711553  0.79037367  1
  H  H482  1  0.67605065  0.07582606  0.50081557  1
  H  H483  1  0.68157454  0.20373162  0.99850730  1
  H  H484  1  0.61465944  0.02690718  0.52240346  1
  C  C485  1  0.71131522  0.28086947  0.99406747  1
  H  H486  1  0.71622177  0.49405204  0.82515978  1
  C  C487  1  0.53232892  0.48228897  0.86918946  1
  O  O488  1  0.70906653  0.26264871  0.89252617  1
  H  H489  1  0.68696173  0.42397646  0.80246002  1
  H  H490  1  0.70543935  0.34060891  0.79504268  1
  H  H491  1  0.54035220  0.46020768  0.78211258  1
  H  H492  1  0.52055120  0.46134154  0.95013615  1
  C  C493  1  0.68848069  0.40322581  0.89233446  1
  O  O494  1  0.60651861  0.48216705  0.94906614  1
  C  C495  1  0.69822489  0.35724686  0.89111438  1
  C  C496  1  0.54099653  0.59888940  0.16309343  1
  C  C497  1  0.57725060  0.57539346  0.16996136  1
  H  H498  1  0.52387598  0.59771630  0.25384308  1
  H  H499  1  0.58466902  0.55563549  0.26162486  1
  C  C500  1  0.70646173  0.53567913  0.16397196  1
  H  H501  1  0.67045756  0.59959795  0.16431314  1
  C  C502  1  0.67287215  0.56475078  0.14019313  1
  C  C503  1  0.52478039  0.66820164  0.42252224  1
  C  C504  1  0.52383054  0.71656542  0.40382813  1
  C  C505  1  0.52711546  0.62269960  0.05075918  1
  H  H506  1  0.55264329  0.65015324  0.40303683  1
  C  C507  1  0.64090501  0.54617569  0.06788041  1
  H  H508  1  0.72625249  0.62503368  0.26250600  1
  C  C509  1  0.60308192  0.57708685  0.05921314  1
  H  H510  1  0.52519986  0.53183727  0.38339971  1
  C  C511  1  0.59328807  0.73843213  0.47399007  1
  C  C512  1  0.56201742  0.74505091  0.38346075  1
  C  C513  1  0.63712880  0.50143279  0.01424694  1
  H  H514  1  0.65371061  0.54491170  0.44326236  1
  H  H515  1  0.51817621  0.72769324  0.18695789  1
  H  H516  1  0.73998537  0.66181782  0.44928504  1
  C  C517  1  0.63963205  0.51106909  0.47529754  1
  H  H518  1  0.56216937  0.52548074  0.02277058  1
  H  H519  1  0.74289006  0.74880223  0.18697018  1
  C  C520  1  0.74620250  0.55628693  0.21213605  1
  C  C521  1  0.50418493  0.52983792  0.46224958  1
  H  H522  1  0.74158666  0.74132546  0.49712035  1
  H  H523  1  0.57883914  0.75249412  0.10452534  1
  Cu  Cu524  1  0.74584764  0.89859395  0.29150247  1
  H  H525  1  0.54610488  0.85654996  0.49311672  1
  C  C526  1  0.67091112  0.83027056  0.00631412  1
  C  C527  1  0.55227805  0.78554257  0.30522249  1
  C  C528  1  0.69976803  0.82573595  0.22155384  1
  H  H529  1  0.63320689  0.84575596  0.45310822  1
  O  O530  1  0.58978952  0.93603834  0.16049721  1
  C  C531  1  0.63492396  0.78224597  0.16370743  1
  C  C532  1  0.55697704  0.96449725  0.37814383  1
  C  C533  1  0.56966260  0.97257980  0.24424214  1
  H  H534  1  0.60651040  0.87897478  0.11287703  1
  O  O535  1  0.69545143  0.81473297  0.34265661  1
  C  C536  1  0.54502228  0.92651156  0.45734565  1
  H  H537  1  0.51319890  0.93981467  0.15458260  1
  O  O538  1  0.52634193  0.79847086  0.22090628  1
  C  C539  1  0.66729409  0.81297256  0.13312056  1
  C  C540  1  0.61298761  0.81605124  0.43465954  1
  C  C541  1  0.59086690  0.89610664  0.20395403  1
  C  C542  1  0.57825634  0.86987574  0.30861991  1
  H  H543  1  0.63189640  0.77036187  0.26631199  1
  Cu  Cu544  1  0.72585168  0.84588655  0.47045181  1
  C  C545  1  0.62218411  0.77316967  0.49263807  1
  C  C546  1  0.60533196  0.77233255  0.07154718  1
  C  C547  1  0.55590694  0.88234705  0.42374892  1
  C  C548  1  0.58111758  0.81952213  0.34861285  1
  H  H549  1  0.51566163  0.88146152  0.14079175  1
  O  O550  1  0.72908553  0.84966580  0.18693488  1
  C  C551  1  0.57366913  0.65632441  0.68721522  1
  C  C552  1  0.56192553  0.70312111  0.73609108  1
  C  C553  1  0.54249083  0.62595267  0.65795159  1
  C  C554  1  0.61471736  0.64026253  0.67970255  1
  H  H555  1  0.64018184  0.65882418  0.73187781  1
  C  C556  1  0.55070251  0.58544227  0.59586815  1
  C  C557  1  0.67185280  0.54036977  0.74616659  1
  H  H558  1  0.61819365  0.71715281  0.84689081  1
  C  C559  1  0.52385555  0.72222712  0.69953947  1
  H  H560  1  0.67764564  0.66262620  0.90431562  1
  C  C561  1  0.70721793  0.66137326  0.86173148  1
  H  H562  1  0.53936802  0.64333053  0.86455669  1
  H  H563  1  0.60964872  0.61014933  0.86445051  1
  C  C564  1  0.72503552  0.69285164  0.77270110  1
  C  C565  1  0.62077352  0.59523398  0.63238469  1
  C  C566  1  0.66289118  0.57541986  0.65096199  1
  H  H567  1  0.64949260  0.53319462  0.82327678  1
  C  C568  1  0.51391263  0.55580189  0.57393214  1
  C  C569  1  0.70769696  0.51633209  0.74379677  1
  C  C570  1  0.58990362  0.56680353  0.57201802  1
  H  H571  1  0.66495516  0.69931251  0.62653615  1
  C  C572  1  0.73442790  0.52617407  0.63981059  1
  H  H573  1  0.57594721  0.53448506  0.85633944  1
  H  H574  1  0.51025489  0.63668312  0.67942084  1
  H  H575  1  0.72095104  0.59512592  0.94779752  1
  C  C576  1  0.73107765  0.62221776  0.88229555  1
  C  C577  1  0.59029233  0.60514302  0.95261017  1
  C  C578  1  0.55191109  0.62403132  0.94334439  1
  C  C579  1  0.67325398  0.73397510  0.65451210  1
  C  C580  1  0.70586730  0.73850420  0.74019961  1
  C  C581  1  0.73023148  0.56311472  0.55142065  1
  C  C582  1  0.69608817  0.59094718  0.56677531  1
  C  C583  1  0.56912330  0.50808438  0.92800257  1
  H  H584  1  0.50165951  0.70301696  0.64175464  1
  C  C585  1  0.58841420  0.73044036  0.81332662  1
  H  H586  1  0.72024351  0.73113833  0.96191542  1
  H  H587  1  0.59621411  0.70605335  0.53064236  1
  H  H588  1  0.64608813  0.50591838  0.58142010  1
  H  H589  1  0.50816152  0.50708220  0.83432670  1
  H  H590  1  0.69379152  0.62229661  0.51190195  1
  O  O591  1  0.59497735  0.52989999  0.50696691  1
  C  C592  1  0.64291665  0.81807321  0.91234138  1
  C  C593  1  0.68929510  0.94794756  0.75042518  1
  C  C594  1  0.70249653  0.81694269  0.71600378  1
  O  O595  1  0.74703101  0.78692036  0.88208421  1
  H  H596  1  0.69932703  0.85056027  0.98569544  1
  C  C597  1  0.70927971  0.86745350  0.74756070  1
  C  C598  1  0.54471882  0.80199173  0.79192325  1
  C  C599  1  0.56722025  0.92611725  0.90073639  1
  C  C600  1  0.51734841  0.76891868  0.73024468  1
  H  H601  1  0.66060607  0.84730954  0.57823543  1
  O  O602  1  0.53767229  0.84629851  0.80699823  1
  H  H603  1  0.59891283  0.94286149  0.90764683  1
  C  C604  1  0.67898660  0.90247266  0.72928171  1
  H  H605  1  0.57394457  0.85959042  0.97494308  1
  H  H606  1  0.55196531  0.93424264  0.99376001  1
  H  H607  1  0.55313772  0.94365681  0.81608260  1
  C  C608  1  0.73081561  0.95859196  0.77836120  1
  C  C609  1  0.65662767  0.77241400  0.59061479  1
  H  H610  1  0.64714957  0.89417028  0.69717931  1
  H  H611  1  0.66713458  0.97500756  0.73366329  1
  C  C612  1  0.57919972  0.77546595  0.83849092  1
  H  H613  1  0.53226668  0.93336750  0.55572987  1
  H  H614  1  0.59415658  0.86384663  0.81590280  1
  C  C615  1  0.72196002  0.78251137  0.78337862  1
  C  C616  1  0.60947043  0.79017684  0.94341426  1
  H  H617  1  0.64460796  0.83049610  0.81048105  1
  C  C618  1  0.67244443  0.81532774  0.62053851  1
  C  C619  1  0.56887396  0.87401223  0.87684957  1
  C  C620  1  0.74829632  0.87926819  0.78788722  1
  H  H621  1  0.52002651  0.75957386  0.95092936  1
  O  O622  1  0.81472210  0.17849765  0.32063737  1
  C  C623  1  0.96657748  0.21589715  0.35607913  1
  C  C624  1  0.90119355  0.17797740  0.37980498  1
  H  H625  1  0.88482401  0.14929095  0.41823248  1
  C  C626  1  0.94235004  0.17837271  0.40074914  1
  Cu  Cu627  1  0.77013912  0.16794926  0.22262649  1
  C  C628  1  0.84109917  0.06535211  0.17651948  1
  C  C629  1  0.83246908  0.02849357  0.25799864  1
  C  C630  1  0.79241152  0.01071147  0.26702977  1
  C  C631  1  0.83808106  0.21201393  0.29240674  1
  C  C632  1  0.88052536  0.21470274  0.32272900  1
  H  H633  1  0.87221915  0.07902211  0.18245390  1
  C  C634  1  0.94906664  0.02800582  0.15750038  1
  C  C635  1  0.77007870  0.06215438  0.10098301  1
  C  C636  1  0.97107291  0.14596038  0.07059330  1
  C  C637  1  0.76087948  0.02834823  0.18878883  1
  C  C638  1  0.81015984  0.08141980  0.09306883  1
  H  H639  1  0.99826081  0.16685944  0.02579761  1
  H  H640  1  0.91918883  0.19311988  0.05337020  1
  O  O641  1  0.88710268  0.12956102  0.04681765  1
  H  H642  1  0.97021833  0.14903693  0.17567368  1
  C  C643  1  0.92848105  0.15909431  0.01972734  1
  H  H644  1  0.85478865  0.01560519  0.32773137  1
  C  C645  1  0.94827139  0.03564995  0.29481199  1
  H  H646  1  0.97537248  0.11037992  0.03638126  1
  O  O647  1  0.94838179  0.03894070  0.40697301  1
  H  H648  1  0.95691078  0.14699989  0.43956790  1
  C  C649  1  0.98161531  0.03675489  0.07210644  1
  H  H650  1  0.92089447  0.01779359  0.11623651  1
  O  O651  1  0.82422484  0.24490558  0.22620920  1
  H  H652  1  0.77684414  0.49224223  0.15278459  1
  C  C653  1  0.87931236  0.49220660  0.26775188  1
  H  H654  1  0.80018494  0.25299484  0.46700171  1
  H  H655  1  0.87190040  0.26180808  0.01617804  1
  C  C656  1  0.94498258  0.25095189  0.28602197  1
  H  H657  1  0.96128535  0.28029031  0.24102827  1
  Cu  Cu658  1  0.77332953  0.25049594  0.16668666  1
  C  C659  1  0.90312740  0.25126108  0.27380625  1
  H  H660  1  0.88752468  0.27786812  0.21820252  1
  O  O661  1  0.97904145  0.42493937  0.12282238  1
  C  C662  1  0.95029163  0.43001982  0.04427600  1
  C  C663  1  0.76346988  0.40547407  0.37380830  1
  C  C664  1  0.91235111  0.46916085  0.21849188  1
  O  O665  1  0.80014553  0.41990559  0.34768893  1
  H  H666  1  0.81991399  0.33376880  0.38623903  1
  C  C667  1  0.78871627  0.32595978  0.41781940  1
  H  H668  1  0.93373893  0.45626369  0.28337141  1
  C  C669  1  0.91632480  0.45612361  0.08907059  1
  C  C670  1  0.77947765  0.28302392  0.46550720  1
  C  C671  1  0.85496094  0.49570140  0.04254207  1
  H  H672  1  0.99245645  0.29782164  0.38299703  1
  C  C673  1  0.75474120  0.35722744  0.40366406  1
  H  H674  1  0.87693647  0.49871363  0.37123358  1
  Cu  Cu675  1  0.83033135  0.44880574  0.47973472  1
  C  C676  1  0.82259654  0.18973352  0.81069692  1
  C  C677  1  0.85508741  0.17815981  0.88863158  1
  C  C678  1  0.78477733  0.13033015  0.91952929  1
  H  H679  1  0.90682689  0.17377453  0.68109879  1
  C  C680  1  0.78677479  0.16351229  0.82035041  1
  C  C681  1  0.91184577  0.20470493  0.74334293  1
  C  C682  1  0.88686451  0.21312127  0.85413428  1
  H  H683  1  0.92309781  0.15366820  0.91059586  1
  H  H684  1  0.82464368  0.22003989  0.74915338  1
  H  H685  1  0.75406268  0.11483343  0.93379821  1
  C  C686  1  0.75743165  0.21644463  0.65314600  1
  H  H687  1  0.79312493  0.04437141  0.82417273  1
  H  H688  1  0.78477584  0.23700980  0.66026305  1
  C  C689  1  0.81770159  0.11750469  0.99566433  1
  C  C690  1  0.85603864  0.14147849  0.98161952  1
  H  H691  1  0.96162325  0.23340191  0.63001493  1
  C  C692  1  0.94145511  0.23783223  0.71387678  1
  O  O693  1  0.78569717  0.01157070  0.81154806  1
  C  C694  1  0.75245324  0.17780402  0.73212494  1
  H  H695  1  0.97493307  0.23525515  0.98502922  1
  C  C696  1  0.88783444  0.47097852  0.99698274  1
  Cu  Cu697  1  0.99944327  0.40263620  0.82672883  1
  H  H698  1  0.92555037  0.31804004  0.95588443  1
  O  O699  1  0.79529746  0.49621357  0.53659900  1
  C  C700  1  0.76922007  0.49201757  0.63136700  1
  O  O701  1  0.99026635  0.33901074  0.84256927  1
  C  C702  1  0.94491399  0.27598140  0.79545054  1
  O  O703  1  0.77532127  0.46493831  0.71845543  1
  O  O704  1  0.95029928  0.41539609  0.92500834  1
  H  H705  1  0.98834006  0.37410132  0.57237171  1
  H  H706  1  0.91731757  0.40903106  0.60489453  1
  C  C707  1  0.94198117  0.43006363  0.55777380  1
  C  C708  1  0.89057199  0.25410503  0.93182152  1
  C  C709  1  0.89831554  0.49684743  0.56455882  1
  O  O710  1  0.86794434  0.47404615  0.59959922  1
  O  O711  1  0.99693032  0.30237907  0.66093476  1
  C  C712  1  0.92046908  0.28566396  0.90294023  1
  C  C713  1  0.93650934  0.47746844  0.52564120  1
  H  H714  1  0.88936679  0.46274448  0.89062056  1
  C  C715  1  0.97835502  0.30826563  0.75896793  1
  H  H716  1  0.96550789  0.49093855  0.75480467  1
  C  C717  1  0.98034471  0.41177381  0.54852308  1
  C  C718  1  0.79859467  0.66286382  0.33228994  1
  C  C719  1  0.79229228  0.61580246  0.27930927  1
  C  C720  1  0.82876049  0.58970724  0.25378594  1
  O  O721  1  0.86534130  0.60848072  0.26909940  1
  C  C722  1  0.83130170  0.69175164  0.29451930  1
  H  H723  1  0.90453640  0.55753739  0.28489594  1
  C  C724  1  0.90515463  0.58639148  0.21673161  1
  C  C725  1  0.81916049  0.54516502  0.21063901  1
  H  H726  1  0.85643916  0.67993891  0.23565351  1
  C  C727  1  0.94700158  0.61023782  0.21621008  1
  H  H728  1  0.96947330  0.58260883  0.19585618  1
  H  H729  1  0.95000915  0.63416326  0.13040289  1
  C  C730  1  0.77986210  0.52635229  0.19698673  1
  H  H731  1  0.89785897  0.57313216  0.11685959  1
  C  C732  1  0.85193130  0.50881438  0.17417838  1
  H  H733  1  0.95505686  0.63039872  0.30896603  1
  C  C734  1  0.76487182  0.68223718  0.40698787  1
  C  C735  1  0.76627976  0.72824204  0.43779762  1
  C  C736  1  0.83229622  0.73757565  0.32125876  1
  H  H737  1  0.75295131  0.57048002  0.47609983  1
  C  C738  1  0.96731433  0.50717014  0.48463901  1
  H  H739  1  0.96307003  0.54583240  0.48492974  1
  H  H740  1  0.77668866  0.70957506  0.13438004  1
  C  C741  1  0.76690883  0.74488745  0.11321981  1
  C  C742  1  0.75265803  0.60131131  0.25269134  1
  C  C743  1  0.78583593  0.97329056  0.35134653  1
  C  C744  1  0.79965844  0.75556497  0.39771206  1
  O  O745  1  0.81433177  0.95121717  0.40796381  1
  C  C746  1  0.79981334  0.80272761  0.44440543  1
  O  O747  1  0.82928272  0.82622274  0.41365440  1
  H  H748  1  0.79174794  0.77162603  0.13718426  1
  O  O749  1  0.75056066  0.95487676  0.35456353  1
  H  H750  1  0.85888512  0.75857880  0.28429880  1
  Cu  Cu751  1  0.82110699  0.88788156  0.40069046  1
  C  C752  1  0.93939296  0.57157693  0.88345623  1
  C  C753  1  0.77114619  0.62243160  0.83747244  1
  C  C754  1  0.78875394  0.65754427  0.75706621  1
  H  H755  1  0.82002847  0.65450853  0.72684145  1
  O  O756  1  0.91218635  0.54821759  0.82112605  1
  Cu  Cu757  1  0.87059324  0.56513660  0.70854544  1
  C  C758  1  0.80177186  0.58665359  0.86365578  1
  O  O759  1  0.84049713  0.59245453  0.83301290  1
  O  O760  1  0.78944920  0.55343405  0.91737950  1
  C  C761  1  0.98252214  0.55624243  0.85471707  1
  O  O762  1  0.93062651  0.60719047  0.93276897  1
  H  H763  1  0.77359652  0.72243766  0.65879682  1
  C  C764  1  0.76366437  0.69155256  0.71296171  1
  H  H765  1  0.77177715  0.72206085  0.90754634  1
  O  O766  1  0.89630214  0.54046683  0.56481464  1
  C  C767  1  0.99019598  0.51558613  0.78415465  1
  H  H768  1  0.83427146  0.51186610  0.97262671  1
  C  C769  1  0.75107744  0.74448244  0.97120435  1
  H  H770  1  0.79155399  0.93728569  0.82572056  1
  O  O771  1  0.77112558  0.82048282  0.51517565  1
  H  H772  1  0.77210421  0.85331632  0.79700417  1
  C  C773  1  0.76083572  0.92468141  0.79934363  1
