# generated using pymatgen
data_CuH15C22O5
_symmetry_space_group_name_H-M   'P 1'
_cell_length_a   32.50268308
_cell_length_b   33.32621499
_cell_length_c   8.54282005
_cell_angle_alpha   90.00000000
_cell_angle_beta   90.00000000
_cell_angle_gamma   90.00000000
_symmetry_Int_Tables_number   1
_chemical_formula_structural   CuH15C22O5
_chemical_formula_sum   'Cu18 H270 C396 O90'
_cell_volume   9253.50923981
_cell_formula_units_Z   18
loop_
 _symmetry_equiv_pos_site_id
 _symmetry_equiv_pos_as_xyz
  1  'x, y, z'
loop_
 _atom_site_type_symbol
 _atom_site_label
 _atom_site_symmetry_multiplicity
 _atom_site_fract_x
 _atom_site_fract_y
 _atom_site_fract_z
 _atom_site_occupancy
  H  H0  1  0.18180578  0.20208946  0.17136853  1
  H  H1  1  0.12702449  0.13023498  0.31767430  1
  H  H2  1  0.18977641  0.10259691  0.42066704  1
  C  C3  1  0.14239268  0.14560036  0.41918135  1
  O  O4  1  0.06646618  0.19394457  0.32084357  1
  C  C5  1  0.17922340  0.13023705  0.47379299  1
  O  O6  1  0.09771220  0.04026007  0.17120237  1
  H  H7  1  0.06180421  0.15826133  0.11495006  1
  O  O8  1  0.22172286  0.05595031  0.27889897  1
  C  C9  1  0.09042632  0.20540255  0.41497586  1
  C  C10  1  0.22917655  0.07112808  0.14799696  1
  C  C11  1  0.02524922  0.04160015  0.34700805  1
  H  H12  1  0.04662292  0.06771946  0.37975839  1
  H  H13  1  0.01738824  0.04449127  0.22162695  1
  H  H14  1  0.20063835  0.09013430  0.11840279  1
  C  C15  1  0.19142157  0.19840220  0.03753759  1
  H  H16  1  0.22575221  0.14130117  0.06190540  1
  C  C17  1  0.23025001  0.17214962  0.02351783  1
  H  H18  1  0.16335839  0.00713132  0.07825235  1
  H  H19  1  0.14601070  0.24889484  0.35641225  1
  O  O20  1  0.06149128  0.00841348  0.35306878  1
  C  C21  1  0.09437942  0.01214479  0.25574063  1
  C  C22  1  0.12856676  0.18349095  0.47163024  1
  H  H23  1  0.01822284  0.09215621  0.03023991  1
  O  O24  1  0.08592817  0.24588924  0.48795639  1
  H  H25  1  0.24805064  0.45854547  0.40194368  1
  O  O26  1  0.11052964  0.33622419  0.47418095  1
  C  C27  1  0.20872448  0.26387934  0.36840372  1
  H  H28  1  0.00182820  0.42169704  0.38360515  1
  C  C29  1  0.03026103  0.43275933  0.32554132  1
  C  C30  1  0.01676830  0.39097990  0.08369530  1
  H  H31  1  0.07187125  0.36308072  0.14450999  1
  C  C32  1  0.04110126  0.42494610  0.16770212  1
  H  H33  1  0.22697550  0.43673628  0.03122188  1
  O  O34  1  0.01538769  0.30150631  0.40385319  1
  C  C35  1  0.23919693  0.28421582  0.28404960  1
  C  C36  1  0.17177626  0.26344246  0.29342144  1
  C  C37  1  0.05295033  0.45952293  0.40481351  1
  H  H38  1  0.12699473  0.48559824  0.12887145  1
  C  C39  1  0.04176784  0.35761345  0.08492209  1
  C  C40  1  0.05930092  0.28635511  0.00776817  1
  C  C41  1  0.20040790  0.29134544  0.05106672  1
  C  C42  1  0.21083048  0.46768569  0.03099780  1
  C  C43  1  0.23684713  0.29710024  0.13320694  1
  Cu  Cu44  1  0.07356102  0.29507455  0.39019654  1
  C  C45  1  0.08653948  0.48146923  0.33617072  1
  C  C46  1  0.09841291  0.29003430  0.07047146  1
  C  C47  1  0.07755482  0.44086158  0.09963302  1
  C  C48  1  0.09960081  0.46968831  0.18360021  1
  C  C49  1  0.16669712  0.27403173  0.13052643  1
  C  C50  1  0.12697216  0.25872909  0.05671629  1
  C  C51  1  0.03130446  0.32173432  0.00640748  1
  H  H52  1  0.10737117  0.31868062  0.12105301  1
  H  H53  1  0.17763773  0.40046110  0.04898211  1
  H  H54  1  0.21400282  0.25151306  0.48492022  1
  H  H55  1  0.12560267  0.41412468  0.49243742  1
  C  C56  1  0.18699767  0.18721891  0.65738744  1
  O  O57  1  0.18735878  0.08864574  0.85725935  1
  C  C58  1  0.14947707  0.10658580  0.78683817  1
  H  H59  1  0.15958067  0.13942840  0.80187933  1
  C  C60  1  0.05025535  0.17383239  0.70679377  1
  C  C61  1  0.10650789  0.09633369  0.85447671  1
  H  H62  1  0.20177594  0.20577489  0.74246933  1
  H  H63  1  0.14207551  0.23291910  0.62650646  1
  H  H64  1  0.09688124  0.06715505  0.81571898  1
  C  C65  1  0.22368720  0.09966060  0.80768629  1
  H  H66  1  0.05548482  0.19548616  0.60646302  1
  C  C67  1  0.05984276  0.17809671  0.86924596  1
  C  C68  1  0.02637079  0.14031029  0.67358307  1
  C  C69  1  0.01365555  0.11283501  0.79495570  1
  C  C70  1  0.15166462  0.20270801  0.59178131  1
  H  H71  1  0.15257809  0.09926777  0.66266365  1
  H  H72  1  0.08546757  0.12041486  0.80661863  1
  C  C73  1  0.24028009  0.02362279  0.64556581  1
  C  C74  1  0.23572647  0.12574016  0.68301980  1
  H  H75  1  0.21375399  0.04499054  0.65417028  1
  H  H76  1  0.01497444  0.13930014  0.55001242  1
  C  C77  1  0.20248793  0.14931852  0.59929290  1
  H  H78  1  0.23393202  0.16778264  0.89301922  1
  H  H79  1  0.02001471  0.24052381  0.89755129  1
  C  C80  1  0.05035501  0.24769237  0.94235105  1
  H  H81  1  0.10567383  0.10070033  0.98447366  1
  C  C82  1  0.02718585  0.11771656  0.95424155  1
  C  C83  1  0.07761456  0.21699382  0.93449476  1
  C  C84  1  0.12002546  0.21997793  0.98975166  1
  C  C85  1  0.05008834  0.15127509  0.99524395  1
  O  O86  1  0.14539843  0.19102818  0.97199807  1
  H  H87  1  0.19927186  0.23015323  0.98284115  1
  H  H88  1  0.08565693  0.43276871  0.98227090  1
  O  O89  1  0.01192589  0.27208531  0.63081028  1
  C  C90  1  0.17616841  0.47541055  0.94226269  1
  H  H91  1  0.01258404  0.46325356  0.98355075  1
  H  H92  1  0.19694362  0.30353085  0.93027629  1
  H  H93  1  0.14103519  0.47456051  0.64539417  1
  H  H94  1  0.14175172  0.33846104  0.90614043  1
  C  C95  1  0.14645509  0.36775966  0.84952607  1
  O  O96  1  0.11926408  0.30444080  0.70136251  1
  C  C97  1  0.13302016  0.41048608  0.61750084  1
  C  C98  1  0.13419445  0.37230691  0.69376823  1
  H  H99  1  0.04440692  0.46381597  0.52206207  1
  C  C100  1  0.12289910  0.33516132  0.61628368  1
  Cu  Cu101  1  0.07061509  0.27697356  0.67345966  1
  C  C102  1  0.14417726  0.44462711  0.69587814  1
  C  C103  1  0.16367775  0.40121311  0.92817145  1
  C  C104  1  0.16176982  0.44000612  0.85030798  1
  H  H105  1  0.19691690  0.38324452  0.55420465  1
  C  C106  1  0.22152074  0.36182183  0.51795526  1
  H  H107  1  0.21228445  0.33047913  0.50014714  1
  H  H108  1  0.21229083  0.56250187  0.20728380  1
  C  C109  1  0.21365780  0.64563672  0.27873925  1
  O  O110  1  0.18027218  0.62876947  0.32667431  1
  Cu  Cu111  1  0.15990253  0.57627110  0.33130252  1
  C  C112  1  0.21504610  0.69030507  0.25572434  1
  C  C113  1  0.17658726  0.71080148  0.27443657  1
  H  H114  1  0.04212536  0.59737636  0.22028403  1
  C  C115  1  0.20340255  0.53856449  0.12508784  1
  O  O116  1  0.13985770  0.52632200  0.34024903  1
  H  H117  1  0.14693588  0.69600610  0.30869409  1
  C  C118  1  0.07184163  0.60083669  0.15591443  1
  O  O119  1  0.02817593  0.66892257  0.25130640  1
  C  C120  1  0.08571491  0.64054146  0.13000026  1
  C  C121  1  0.06298914  0.67445046  0.18413366  1
  C  C122  1  0.10892312  0.51301689  0.41197799  1
  O  O123  1  0.07449424  0.70968003  0.15262846  1
  C  C124  1  0.22433952  0.50057547  0.11967311  1
  H  H125  1  0.08957267  0.53838660  0.13187256  1
  C  C126  1  0.09758163  0.56928736  0.10937401  1
  C  C127  1  0.16864020  0.54201609  0.03712473  1
  C  C128  1  0.13796732  0.57563028  0.05135603  1
  C  C129  1  0.15032219  0.61634306  0.01777299  1
  C  C130  1  0.12513188  0.64804686  0.06238114  1
  O  O131  1  0.24297965  0.62482451  0.24224611  1
  O  O132  1  0.19720995  0.56223168  0.48953716  1
  H  H133  1  0.13606690  0.67926090  0.05165647  1
  C  C134  1  0.18123319  0.75196771  0.25222443  1
  C  C135  1  0.24986174  0.88915181  0.32235958  1
  O  O136  1  0.16200560  0.83148567  0.14530788  1
  H  H137  1  0.07306613  0.83836568  0.09818944  1
  C  C138  1  0.15662771  0.91969794  0.37389916  1
  C  C139  1  0.09257136  0.85507781  0.00628746  1
  C  C140  1  0.12795126  0.98071677  0.26835832  1
  C  C141  1  0.13091239  0.86608933  0.10208135  1
  C  C142  1  0.21202006  0.88004063  0.25478393  1
  O  O143  1  0.00263340  0.78813905  0.16716446  1
  C  C144  1  0.19746169  0.84159484  0.20909920  1
  H  H145  1  0.10012413  0.94650328  0.46641537  1
  H  H146  1  0.21476946  0.95278871  0.06677992  1
  Cu  Cu147  1  0.04381439  0.75195012  0.15289581  1
  C  C148  1  0.22931045  0.81330793  0.23571995  1
  H  H149  1  0.15475662  0.77152149  0.27805478  1
  C  C150  1  0.15976690  0.98126378  0.15843583  1
  C  C151  1  0.12620800  0.94993631  0.37983785  1
  C  C152  1  0.18764574  0.94988966  0.13815037  1
  C  C153  1  0.22193325  0.76933320  0.22006339  1
  H  H154  1  0.12005911  0.88425407  0.20717627  1
  C  C155  1  0.18591216  0.91809137  0.24816851  1
  H  H156  1  0.15107778  0.88727986  0.03127078  1
  H  H157  1  0.15649541  0.89077911  0.44147267  1
  O  O158  1  0.17247347  0.58252285  0.71531102  1
  C  C159  1  0.20242475  0.57329618  0.63042878  1
  Cu  Cu160  1  0.12267184  0.55621126  0.68845644  1
  H  H161  1  0.23110613  0.60705414  0.90646728  1
  O  O162  1  0.12330298  0.51568892  0.83236591  1
  H  H163  1  0.04248771  0.69291321  0.59253709  1
  C  C164  1  0.24465932  0.57555735  0.68681424  1
  O  O165  1  0.08119721  0.73078987  0.75528994  1
  C  C166  1  0.04846893  0.74243333  0.81743818  1
  C  C167  1  0.15315917  0.51254825  0.92458477  1
  O  O168  1  0.09416320  0.52801025  0.53916796  1
  H  H169  1  0.18107702  0.62350554  0.96885401  1
  C  C170  1  0.00882857  0.72973651  0.75192716  1
  H  H171  1  0.01984944  0.53380436  0.59734807  1
  C  C172  1  0.01105021  0.70325263  0.62429711  1
  O  O173  1  0.15540932  0.79484080  0.59361813  1
  C  C174  1  0.17707186  0.81945540  0.68074533  1
  O  O175  1  0.16167169  0.84905756  0.73531781  1
  H  H176  1  0.22707791  0.84457560  0.92655000  1
  Cu  Cu177  1  0.11764791  0.76193793  0.67715977  1
  O  O178  1  0.05096164  0.76693968  0.93167582  1
  C  C179  1  0.21992112  0.80618029  0.71774313  1
  H  H180  1  0.10353887  0.83300564  0.91254822  1
  C  C181  1  0.23618774  0.77880839  0.61210252  1
  C  C182  1  0.24196032  0.82206127  0.84800082  1
  H  H183  1  0.21800519  0.76745131  0.51052396  1
  H  H184  1  0.07646326  0.88059647  0.94565572  1
  H  H185  1  0.43385616  0.19419293  0.25180692  1
  C  C186  1  0.42831213  0.21799211  0.33835282  1
  C  C187  1  0.46231096  0.02766411  0.17566333  1
  C  C188  1  0.42525660  0.02405395  0.11908577  1
  H  H189  1  0.48703596  0.19360902  0.38800004  1
  H  H190  1  0.40485096  0.04912678  0.10578574  1
  O  O191  1  0.28945174  0.01687384  0.20447716  1
  C  C192  1  0.25692052  0.02733120  0.34825021  1
  C  C193  1  0.28893118  0.03652976  0.08551628  1
  H  H194  1  0.49298948  0.09001679  0.46951478  1
  H  H195  1  0.25868132  0.18427651  0.07726815  1
  H  H196  1  0.45160583  0.01447518  0.49906957  1
  O  O197  1  0.49285625  0.10722403  0.15463615  1
  C  C198  1  0.26096835  0.06622635  0.04529127  1
  C  C199  1  0.41355055  0.20919667  0.49121573  1
  H  H200  1  0.31507332  0.02806502  0.01033304  1
  H  H201  1  0.46929712  0.49644554  0.40184274  1
  H  H202  1  0.44709747  0.26383507  0.17745883  1
  C  C203  1  0.43410078  0.25751725  0.29132676  1
  H  H204  1  0.35898782  0.40707436  0.44467914  1
  C  C205  1  0.28015670  0.28719452  0.36420178  1
  Cu  Cu206  1  0.34137099  0.27735110  0.15943505  1
  O  O207  1  0.29877327  0.38440330  0.06263453  1
  Cu  Cu208  1  0.39042264  0.34039439  0.07452072  1
  C  C209  1  0.31280094  0.47947438  0.41027125  1
  C  C210  1  0.27302652  0.47751984  0.35166784  1
  O  O211  1  0.43301723  0.34000262  0.19742666  1
  O  O212  1  0.31069126  0.30581388  0.29968728  1
  C  C213  1  0.42276551  0.28911741  0.39281361  1
  O  O214  1  0.41693574  0.35884204  0.43774392  1
  H  H215  1  0.26561133  0.31336013  0.09006946  1
  C  C216  1  0.42600923  0.33253550  0.34850984  1
  H  H217  1  0.39608105  0.48433308  0.03041727  1
  H  H218  1  0.28308956  0.35391809  0.45525458  1
  O  O219  1  0.37082593  0.25056268  0.01048602  1
  C  C220  1  0.25941691  0.37346649  0.49944675  1
  O  O221  1  0.28509848  0.27247215  0.49185801  1
  C  C222  1  0.30113706  0.09164474  0.83391261  1
  H  H223  1  0.32732195  0.07731453  0.89950007  1
  C  C224  1  0.44829990  0.04246216  0.79130877  1
  H  H225  1  0.37852903  0.05813847  0.71180863  1
  C  C226  1  0.30897128  0.11341849  0.69941914  1
  C  C227  1  0.45381742  0.06982774  0.66203579  1
  H  H228  1  0.42166140  0.04606124  0.87302427  1
  C  C229  1  0.38330040  0.09112881  0.68043251  1
  C  C230  1  0.42353287  0.10260070  0.64901460  1
  C  C231  1  0.46721092  0.17209373  0.89559178  1
  C  C232  1  0.35451296  0.12122087  0.64973631  1
  C  C233  1  0.27652602  0.13131311  0.62486732  1
  C  C234  1  0.43345337  0.19726411  0.92707599  1
  C  C235  1  0.26045197  0.08620865  0.88901849  1
  H  H236  1  0.39428389  0.23452998  0.70911959  1
  C  C237  1  0.44008207  0.14141613  0.59686349  1
  H  H238  1  0.46589669  0.14042677  0.92840162  1
  O  O239  1  0.47840648  0.14905518  0.57514124  1
  C  C240  1  0.47968328  0.01423549  0.81749356  1
  H  H241  1  0.40183915  0.18820272  0.95525120  1
  H  H242  1  0.47603683  0.20891800  0.58789298  1
  C  C243  1  0.49040130  0.06719077  0.56606707  1
  C  C244  1  0.40437986  0.24182377  0.59286670  1
  C  C245  1  0.36632562  0.15893859  0.58794836  1
  C  C246  1  0.40653876  0.16664269  0.55899394  1
  H  H247  1  0.34379244  0.18276472  0.57309004  1
  C  C248  1  0.49676675  0.18855147  0.51309253  1
  C  C249  1  0.43827156  0.23900613  0.91515924  1
  C  C250  1  0.26249499  0.01067803  0.51306044  1
  H  H251  1  0.28303536  0.15084735  0.52504282  1
  H  H252  1  0.40016439  0.30771893  0.61470660  1
  H  H253  1  0.26789156  0.40494423  0.52614455  1
  H  H254  1  0.27531842  0.48995278  0.70215515  1
  C  C255  1  0.47657707  0.25725373  0.87136946  1
  H  H256  1  0.26979044  0.43764057  0.91395223  1
  C  C257  1  0.32002847  0.37546454  0.95611200  1
  H  H258  1  0.41151040  0.45071468  0.85985696  1
  H  H259  1  0.35920658  0.36296283  0.67324668  1
  C  C260  1  0.34162426  0.41668987  0.54968237  1
  O  O261  1  0.34599210  0.34406477  0.95840400  1
  H  H262  1  0.36085736  0.45370696  0.93697037  1
  C  C263  1  0.40486733  0.26382925  0.96105807  1
  C  C264  1  0.40875530  0.28113848  0.54386396  1
  H  H265  1  0.48217562  0.28955598  0.87205918  1
  O  O266  1  0.40968612  0.30013063  0.92644804  1
  C  C267  1  0.29281936  0.46195295  0.68703563  1
  C  C268  1  0.34253647  0.39106812  0.67946514  1
  C  C269  1  0.38837884  0.47223394  0.90878226  1
  C  C270  1  0.31796858  0.40129523  0.81238843  1
  C  C271  1  0.29269421  0.43573490  0.81276151  1
  C  C272  1  0.31591704  0.45091160  0.54595757  1
  C  C273  1  0.40484589  0.64321526  0.20437037  1
  C  C274  1  0.35083821  0.57577918  0.23284317  1
  C  C275  1  0.36992383  0.58574755  0.08624361  1
  C  C276  1  0.43800571  0.67379726  0.19365425  1
  O  O277  1  0.45458752  0.67874149  0.05996966  1
  C  C278  1  0.39538633  0.61874145  0.07500514  1
  C  C279  1  0.32985473  0.53566447  0.26000757  1
  C  C280  1  0.29125433  0.53435323  0.18900096  1
  C  C281  1  0.35761409  0.60218150  0.36392828  1
  H  H282  1  0.28057416  0.68187712  0.19700754  1
  C  C283  1  0.38361670  0.63506518  0.34871220  1
  O  O284  1  0.45417355  0.68724875  0.31683351  1
  H  H285  1  0.28085329  0.55733314  0.10438735  1
  C  C286  1  0.41322080  0.53714158  0.40051510  1
  H  H287  1  0.41091509  0.54248637  0.27129344  1
  O  O288  1  0.48422369  0.58670191  0.19143563  1
  C  C289  1  0.25647397  0.74330783  0.18629285  1
  C  C290  1  0.25456929  0.70291319  0.20942361  1
  H  H291  1  0.48179278  0.54747043  0.40637553  1
  H  H292  1  0.49431375  0.61332182  0.44773439  1
  H  H293  1  0.39363391  0.65566105  0.44193592  1
  H  H294  1  0.33995767  0.59781383  0.47080965  1
  H  H295  1  0.26206508  0.54434684  0.47329559  1
  H  H296  1  0.40022207  0.56135132  0.47831564  1
  C  C297  1  0.26241064  0.50318448  0.22270618  1
  C  C298  1  0.45836945  0.52565819  0.44229474  1
  O  O299  1  0.38096566  0.50306992  0.43566454  1
  C  C300  1  0.34495487  0.50642979  0.36921218  1
  H  H301  1  0.28532736  0.75794945  0.15775740  1
  C  C302  1  0.46606059  0.84892028  0.16090321  1
  C  C303  1  0.26862423  0.82123674  0.30234135  1
  C  C304  1  0.31962887  0.87307598  0.43865664  1
  H  H305  1  0.28878787  0.79570797  0.33601742  1
  H  H306  1  0.45175466  0.96836917  0.37795378  1
  C  C307  1  0.43756470  0.98363018  0.48378991  1
  C  C308  1  0.43581139  0.82326211  0.10604504  1
  C  C309  1  0.28009422  0.85927804  0.34965073  1
  H  H310  1  0.32392326  0.97748392  0.45964233  1
  C  C311  1  0.35422236  0.84850739  0.43933982  1
  H  H312  1  0.35635627  0.82175845  0.36808151  1
  C  C313  1  0.40888656  0.98381857  0.07258471  1
  H  H314  1  0.46009716  0.87041958  0.25576736  1
  H  H315  1  0.25665190  0.92090912  0.34816996  1
  H  H316  1  0.40743403  0.81980233  0.16723565  1
  O  O317  1  0.42169233  0.95294459  0.11355014  1
  H  H318  1  0.32458192  0.89015255  0.07364417  1
  H  H319  1  0.40429477  0.98745261  0.44960240  1
  C  C320  1  0.32902357  0.58063770  0.76751463  1
  C  C321  1  0.37128899  0.60007065  0.75551829  1
  C  C322  1  0.36311489  0.64037917  0.75597527  1
  C  C323  1  0.39740488  0.66730702  0.74114089  1
  O  O324  1  0.41624999  0.53901901  0.78729874  1
  C  C325  1  0.40974335  0.57700617  0.75820575  1
  C  C326  1  0.43945373  0.60545195  0.71319923  1
  C  C327  1  0.43546997  0.64768320  0.72346691  1
  H  H328  1  0.46453247  0.66467155  0.71737176  1
  C  C329  1  0.48299114  0.59043322  0.68461792  1
  H  H330  1  0.33127497  0.65244023  0.76759420  1
  C  C331  1  0.31428723  0.55790801  0.63689303  1
  C  C332  1  0.29875748  0.59650378  0.86984118  1
  C  C333  1  0.39130656  0.71195629  0.76588789  1
  H  H334  1  0.32466906  0.71291471  0.69510607  1
  H  H335  1  0.35893293  0.52929683  0.87547647  1
  H  H336  1  0.45197671  0.72677318  0.85802406  1
  C  C337  1  0.35187822  0.72928153  0.74466584  1
  H  H338  1  0.43240298  0.73138709  0.55254503  1
  C  C339  1  0.38027260  0.51017014  0.81058591  1
  C  C340  1  0.42082771  0.73650088  0.83957375  1
  C  C341  1  0.27406894  0.55763309  0.58843350  1
  H  H342  1  0.45917496  0.52430739  0.57657713  1
  H  H343  1  0.33693189  0.54428913  0.55937401  1
  H  H344  1  0.30828290  0.61726731  0.96367693  1
  H  H345  1  0.47831782  0.55765647  0.91345642  1
  H  H346  1  0.41322667  0.62400125  0.96394454  1
  H  H347  1  0.29107375  0.74673747  0.53790218  1
  H  H348  1  0.36438272  0.56523172  0.98754135  1
  C  C349  1  0.25665394  0.59402345  0.83089838  1
  H  H350  1  0.36865656  0.50289375  0.68919165  1
  C  C351  1  0.49788008  0.56596903  0.80819485  1
  C  C352  1  0.30197467  0.98823088  0.55186541  1
  H  H353  1  0.29132851  0.99228819  0.80865331  1
  H  H354  1  0.28789863  0.92280232  0.52815340  1
  H  H355  1  0.47637053  0.99267757  0.92182874  1
  C  C356  1  0.36895153  0.95915735  0.85786026  1
  C  C357  1  0.27704421  0.76486073  0.63109122  1
  C  C358  1  0.37195718  0.79228089  0.88038427  1
  H  H359  1  0.39462197  0.93767029  0.87169392  1
  H  H360  1  0.30558433  0.91769142  0.90839208  1
  C  C361  1  0.31118112  0.88686079  0.95730563  1
  C  C362  1  0.39392755  0.90278863  0.59111303  1
  C  C363  1  0.40977818  0.77348370  0.89815098  1
  C  C364  1  0.30895696  0.98022346  0.70261030  1
  H  H365  1  0.32060327  0.84382753  0.76270837  1
  C  C366  1  0.44349078  0.79982164  0.96828407  1
  C  C367  1  0.35462407  0.92179841  0.60448521  1
  H  H368  1  0.49265520  0.77907266  0.80833826  1
  C  C369  1  0.48490310  0.79851264  0.90653688  1
  C  C370  1  0.34607420  0.95285711  0.72715282  1
  H  H371  1  0.36332667  0.87872446  0.79802195  1
  H  H372  1  0.47312035  0.95528712  0.68965999  1
  O  O373  1  0.43120780  0.91602860  0.64335919  1
  C  C374  1  0.44124920  0.96027215  0.64068811  1
  C  C375  1  0.48308593  0.77331769  0.53769970  1
  C  C376  1  0.33849313  0.85854582  0.85458332  1
  O  O377  1  0.36777187  0.98458425  0.97489939  1
  C  C378  1  0.44092748  0.76212773  0.54445007  1
  C  C379  1  0.27992859  0.80548585  0.87453980  1
  C  C380  1  0.34305750  0.76798579  0.79638433  1
  C  C381  1  0.29889782  0.77958067  0.76461133  1
  H  H382  1  0.38071204  0.78362534  0.53274850  1
  O  O383  1  0.36732709  0.83104542  0.93840179  1
  H  H384  1  0.42559322  0.97936867  0.73093243  1
  C  C385  1  0.41316745  0.79310918  0.53634800  1
  C  C386  1  0.31881244  0.90839578  0.52641223  1
  H  H387  1  0.47372829  0.87774318  0.52604542  1
  C  C388  1  0.38910677  0.86409741  0.51825067  1
  C  C389  1  0.46740571  0.84481754  0.53450691  1
  H  H390  1  0.27820100  0.87620701  0.97707117  1
  C  C391  1  0.49598831  0.81391473  0.53550176  1
  H  H392  1  0.29956085  0.81771961  0.97150075  1
  C  C393  1  0.42480815  0.83512965  0.53416652  1
  C  C394  1  0.62238416  0.13426705  0.37103136  1
  C  C395  1  0.61991126  0.17467966  0.31144395  1
  C  C396  1  0.59166895  0.10872619  0.33833952  1
  H  H397  1  0.59607404  0.07602384  0.36611258  1
  C  C398  1  0.58639491  0.18836369  0.22014787  1
  C  C399  1  0.55845445  0.12289635  0.24478579  1
  C  C400  1  0.55385499  0.16396610  0.19329691  1
  O  O401  1  0.53038642  0.05495138  0.27041603  1
  C  C402  1  0.52302048  0.09715999  0.21639546  1
  C  C403  1  0.72252491  0.21958647  0.38326172  1
  C  C404  1  0.65158352  0.20522019  0.36417730  1
  H  H405  1  0.69720859  0.15856162  0.32091668  1
  C  C406  1  0.69081925  0.19106575  0.35324425  1
  H  H407  1  0.65074085  0.12695668  0.44132680  1
  H  H408  1  0.58610821  0.21940674  0.17065126  1
  H  H409  1  0.52806532  0.17140633  0.11726102  1
  H  H410  1  0.66993026  0.14630248  0.09462675  1
  C  C411  1  0.74298460  0.02285155  0.05339902  1
  C  C412  1  0.50037151  0.02724930  0.23580758  1
  H  H413  1  0.55694742  0.21826239  0.43900114  1
  H  H414  1  0.74246065  0.14202906  0.34778013  1
  H  H415  1  0.74340609  0.16499158  0.07719485  1
  C  C416  1  0.63939358  0.24704371  0.40042609  1
  H  H417  1  0.51969650  0.00006342  0.26708177  1
  H  H418  1  0.65352157  0.21867487  0.01801187  1
  H  H419  1  0.62876654  0.29143352  0.07187359  1
  C  C420  1  0.71397443  0.25975317  0.43323921  1
  C  C421  1  0.69766721  0.34836249  0.47098352  1
  O  O422  1  0.60362742  0.25641789  0.40124783  1
  H  H423  1  0.67306275  0.40523990  0.24300071  1
  C  C424  1  0.74591661  0.47655160  0.04589897  1
  H  H425  1  0.59803100  0.38559543  0.36989927  1
  O  O426  1  0.64019301  0.45004436  0.18922766  1
  C  C427  1  0.67409602  0.27465899  0.43000449  1
  Cu  Cu428  1  0.65695686  0.49462067  0.48844605  1
  C  C429  1  0.66768344  0.31714948  0.48063560  1
  C  C430  1  0.67194927  0.46897815  0.13611337  1
  C  C431  1  0.64282227  0.40320114  0.18325920  1
  C  C432  1  0.71038510  0.45548428  0.08277326  1
  H  H433  1  0.73930949  0.28133014  0.45287037  1
  C  C434  1  0.72053067  0.41136755  0.05970939  1
  H  H435  1  0.58132541  0.37345702  0.16775388  1
  H  H436  1  0.62124241  0.34435553  0.26573650  1
  C  C437  1  0.60886182  0.37591028  0.25127814  1
  H  H438  1  0.72968880  0.34304294  0.42645858  1
  H  H439  1  0.59119689  0.48170377  0.17422165  1
  H  H440  1  0.65083621  0.39421101  0.05493855  1
  C  C441  1  0.74217566  0.38982776  0.18072131  1
  O  O442  1  0.71677111  0.49822231  0.46819106  1
  C  C443  1  0.74806230  0.33529800  0.00013240  1
  C  C444  1  0.56974252  0.10109762  0.78488124  1
  C  C445  1  0.67988619  0.16791364  0.69017474  1
  C  C446  1  0.61048789  0.10914873  0.78751105  1
  C  C447  1  0.53466792  0.12063119  0.82293752  1
  C  C448  1  0.61652924  0.15111495  0.83488028  1
  C  C449  1  0.66157435  0.16047048  0.84251833  1
  C  C450  1  0.58398032  0.17670737  0.87171055  1
  C  C451  1  0.54339667  0.16323887  0.84735691  1
  H  H452  1  0.63378517  0.08701271  0.75633573  1
  O  O453  1  0.58936402  0.21582325  0.90142748  1
  C  C454  1  0.51317658  0.01063852  0.71185041  1
  H  H455  1  0.66000507  0.16874200  0.58692428  1
  H  H456  1  0.64447989  0.22868999  0.80436597  1
  C  C457  1  0.63631347  0.23598967  0.93031656  1
  C  C458  1  0.68400459  0.15782460  0.98263517  1
  C  C459  1  0.50633394  0.18845234  0.86432805  1
  C  C460  1  0.51841238  0.03661431  0.58734468  1
  C  C461  1  0.50970438  0.23234855  0.84974504  1
  C  C462  1  0.72541992  0.16639450  0.97445057  1
  C  C463  1  0.72133821  0.17746476  0.69242611  1
  H  H464  1  0.55507651  0.20309249  0.64670878  1
  H  H465  1  0.73567945  0.18507921  0.57863451  1
  O  O466  1  0.73331560  0.05381870  0.77759332  1
  C  C467  1  0.74480360  0.17569253  0.83127028  1
  C  C468  1  0.73700788  0.03838910  0.89870688  1
  H  H469  1  0.54688850  0.03305277  0.51727429  1
  H  H470  1  0.56159795  0.16435700  0.50770859  1
  C  C471  1  0.54450859  0.19439231  0.52701267  1
  H  H472  1  0.50346886  0.10771756  0.82370858  1
  H  H473  1  0.53996892  0.24536566  0.81460280  1
  H  H474  1  0.70899980  0.40796666  0.53952921  1
  H  H475  1  0.60509839  0.29637039  0.56597641  1
  O  O476  1  0.73139208  0.49918461  0.71873577  1
  O  O477  1  0.60012533  0.43205559  0.71607552  1
  H  H478  1  0.71782529  0.34026481  0.76954841  1
  C  C479  1  0.71133410  0.39365093  0.91484088  1
  C  C480  1  0.63313630  0.42887839  0.66044665  1
  C  C481  1  0.72614605  0.35507651  0.88260067  1
  H  H482  1  0.58540747  0.36293413  0.66691530  1
  H  H483  1  0.62833182  0.30071705  0.86084019  1
  H  H484  1  0.69039967  0.41154434  0.83345942  1
  C  C485  1  0.64677954  0.38813622  0.60516411  1
  C  C486  1  0.64148197  0.28146881  0.95472463  1
  O  O487  1  0.66027311  0.45968332  0.65264508  1
  C  C488  1  0.61678358  0.35757549  0.61868436  1
  H  H489  1  0.67551340  0.28824080  0.95910728  1
  C  C490  1  0.62771334  0.32073037  0.55848906  1
  C  C491  1  0.68591043  0.38436287  0.54216323  1
  C  C492  1  0.62929228  0.53536634  0.13919356  1
  C  C493  1  0.62990968  0.57774186  0.13441982  1
  C  C494  1  0.55666761  0.58039798  0.16453509  1
  C  C495  1  0.55485972  0.53799804  0.17437322  1
  H  H496  1  0.69518439  0.69761919  0.27058970  1
  H  H497  1  0.62789212  0.67754617  0.16918025  1
  C  C498  1  0.59475416  0.59979790  0.14356196  1
  C  C499  1  0.67802438  0.72045469  0.21150780  1
  C  C500  1  0.64063504  0.70754296  0.15186865  1
  H  H501  1  0.59735659  0.63332721  0.13117886  1
  H  H502  1  0.73050008  0.65426787  0.08911173  1
  C  C503  1  0.70151777  0.53523795  0.08854063  1
  O  O504  1  0.52030939  0.64287021  0.18666392  1
  C  C505  1  0.51731229  0.60252968  0.18317770  1
  Cu  Cu506  1  0.50774295  0.68328906  0.04402546  1
  Cu  Cu507  1  0.51099429  0.67548841  0.35672738  1
  H  H508  1  0.66023142  0.59633934  0.11538920  1
  H  H509  1  0.70118720  0.56817375  0.08738063  1
  H  H510  1  0.52424978  0.52476100  0.18415601  1
  C  C511  1  0.73958565  0.51814707  0.04901702  1
  C  C512  1  0.66746486  0.51281507  0.12168154  1
  H  H513  1  0.56354006  0.58439976  0.42204604  1
  C  C514  1  0.62155096  0.73372270  0.04265014  1
  C  C515  1  0.59054645  0.51464466  0.16858426  1
  C  C516  1  0.69823228  0.75700368  0.17848799  1
  C  C517  1  0.63917573  0.77162371  0.01132449  1
  H  H518  1  0.71155875  0.89582016  0.08389117  1
  C  C519  1  0.74661140  0.87340009  0.31234979  1
  C  C520  1  0.50444238  0.85162634  0.08192785  1
  H  H521  1  0.69897792  0.96715814  0.04951708  1
  C  C522  1  0.53426426  0.88247667  0.13942414  1
  H  H523  1  0.68816293  0.81506512  0.06144492  1
  O  O524  1  0.53021936  0.89660780  0.26908380  1
  C  C525  1  0.73918563  0.76724547  0.25218218  1
  O  O526  1  0.56786308  0.88793437  0.04974616  1
  H  H527  1  0.73386249  0.90485252  0.32206331  1
  C  C528  1  0.67453385  0.78481862  0.08293587  1
  C  C529  1  0.74705389  0.80761811  0.28411029  1
  C  C530  1  0.72345480  0.98495670  0.11644398  1
  O  O531  1  0.72326075  0.84575333  0.26660849  1
  O  O532  1  0.72778846  0.96420784  0.22726291  1
  C  C533  1  0.56253108  0.55882542  0.66061154  1
  C  C534  1  0.60313416  0.53892120  0.65626046  1
  O  O535  1  0.61924270  0.52725533  0.77831238  1
  C  C536  1  0.71693739  0.69880047  0.74056688  1
  C  C537  1  0.53998262  0.55533689  0.80280098  1
  C  C538  1  0.68322287  0.72154490  0.67038701  1
  H  H539  1  0.55151592  0.53756079  0.90029236  1
  O  O540  1  0.64796427  0.71808415  0.72250358  1
  C  C541  1  0.54630844  0.58126124  0.53475376  1
  O  O542  1  0.50732583  0.70824103  0.54738758  1
  O  O543  1  0.61966433  0.53557983  0.52182317  1
  C  C544  1  0.73998813  0.50799069  0.57883328  1
  H  H545  1  0.73805566  0.59428211  0.91098702  1
  Cu  Cu546  1  0.60122997  0.73817552  0.63568579  1
  C  C547  1  0.51778082  0.74494013  0.54690306  1
  O  O548  1  0.57748861  0.74225725  0.84040009  1
  C  C549  1  0.71074195  0.68385908  0.89216628  1
  C  C550  1  0.58426614  0.72004955  0.96197087  1
  H  H551  1  0.68026561  0.68710847  0.94231769  1
  C  C552  1  0.50762177  0.59751944  0.54567592  1
  O  O553  1  0.56425172  0.69018169  0.99326638  1
  O  O554  1  0.68986747  0.74741849  0.56055765  1
  Cu  Cu555  1  0.67525816  0.50513226  0.77055744  1
  C  C556  1  0.74116182  0.66344447  0.97039439  1
  H  H557  1  0.74482805  0.83456721  0.95357271  1
  C  C558  1  0.51454509  0.82485288  0.96308291  1
  H  H559  1  0.63844896  0.87572519  0.98209565  1
  O  O560  1  0.55403986  0.75634655  0.53214964  1
  C  C561  1  0.70458740  0.88887308  0.95584639  1
  H  H562  1  0.72609997  0.75978311  0.85231683  1
  O  O563  1  0.53302542  0.94349759  0.81874538  1
  C  C564  1  0.54374008  0.97631744  0.74135344  1
  H  H565  1  0.61972913  0.79231682  0.93604492  1
  Cu  Cu566  1  0.56363915  0.89530317  0.82488115  1
  C  C567  1  0.62465644  0.85078708  0.68897496  1
  H  H568  1  0.54646370  0.82265496  0.91116633  1
  Cu  Cu569  1  0.65252612  0.78937748  0.54082844  1
  O  O570  1  0.59587477  0.84920681  0.78750880  1
  O  O571  1  0.62230002  0.83594628  0.55315780  1
  C  C572  1  0.66704318  0.87737456  0.90256082  1
  C  C573  1  0.66218383  0.87080108  0.74093465  1
  C  C574  1  0.73646703  0.89358786  0.84524006  1
  C  C575  1  0.69401900  0.87180145  0.62667983  1
  C  C576  1  0.73289332  0.88434125  0.68211981  1
  O  O577  1  0.57537221  0.97731387  0.66654951  1
  H  H578  1  0.68999055  0.86422860  0.50636112  1
  H  H579  1  0.53082206  0.81758879  0.54517009  1
  C  C580  1  0.80972957  0.14289504  0.30958767  1
  C  C581  1  0.77052595  0.15929686  0.34285082  1
  C  C582  1  0.80726729  0.09531646  0.28438545  1
  C  C583  1  0.76526786  0.20009230  0.36307784  1
  C  C584  1  0.89229986  0.11757265  0.18518826  1
  C  C585  1  0.84555576  0.16425178  0.29847882  1
  H  H586  1  0.95521280  0.09832516  0.24818667  1
  Cu  Cu587  1  0.78238342  0.22279722  0.11032853  1
  C  C588  1  0.92855842  0.08950673  0.16548199  1
  H  H589  1  0.86414659  0.11218381  0.11835277  1
  C  C590  1  0.80307343  0.22292251  0.37065126  1
  C  C591  1  0.78199687  0.07944052  0.16321497  1
  O  O592  1  0.88912184  0.14672762  0.26769966  1
  C  C593  1  0.84055646  0.20462863  0.33968731  1
  C  C594  1  0.88311454  0.22787620  0.35804699  1
  H  H595  1  0.92169270  0.05739707  0.16096343  1
  H  H596  1  0.77171116  0.02382324  0.28625803  1
  C  C597  1  0.82808655  0.06900576  0.37977137  1
  C  C598  1  0.76562094  0.04062027  0.18048228  1
  O  O599  1  0.83371717  0.03131035  0.39304062  1
  H  H600  1  0.84698833  0.08781001  0.45833685  1
  H  H601  1  0.93865402  0.09237182  0.04047996  1
  H  H602  1  0.77193004  0.09726719  0.06460104  1
  H  H603  1  0.95976070  0.02969473  0.39051557  1
  C  C604  1  0.98756063  0.03870768  0.45494295  1
  O  O605  1  0.83478774  0.32465059  0.39467430  1
  C  C606  1  0.91722682  0.49959660  0.30964538  1
  H  H607  1  0.86852753  0.49447937  0.13652729  1
  H  H608  1  0.88375748  0.33353828  0.03867375  1
  H  H609  1  0.99115077  0.47334430  0.18134961  1
  C  C610  1  0.98489907  0.47517841  0.04797812  1
  C  C611  1  0.97780639  0.39281007  0.01025079  1
  C  C612  1  0.93925410  0.27551703  0.30990415  1
  C  C613  1  0.90346538  0.25668191  0.26088374  1
  H  H614  1  0.77438139  0.46075915  0.00604744  1
  H  H615  1  0.92344476  0.46623792  0.32445154  1
  H  H616  1  0.80112350  0.25589988  0.37364029  1
  H  H617  1  0.77380179  0.33367871  0.24040258  1
  H  H618  1  0.75028203  0.40492098  0.29067688  1
  H  H619  1  0.90546032  0.34124925  0.45024790  1
  H  H620  1  0.88806051  0.26535590  0.15102227  1
  O  O621  1  0.78263300  0.27320301  0.06470327  1
  H  H622  1  0.95616067  0.29560529  0.23627051  1
  C  C623  1  0.75452282  0.35058972  0.15775579  1
  O  O624  1  0.95718181  0.43240541  0.00551427  1
  C  C625  1  0.95529450  0.26485127  0.45884340  1
  C  C626  1  0.99557435  0.27930428  0.49476041  1
  O  O627  1  0.80436732  0.20152447  0.72484473  1
  C  C628  1  0.78802130  0.18669324  0.84372223  1
  H  H629  1  0.88455405  0.18955362  0.57771757  1
  H  H630  1  0.94775342  0.07212689  0.58465384  1
  H  H631  1  0.95286012  0.22864242  0.66463545  1
  O  O632  1  0.97772427  0.07783964  0.57511286  1
  O  O633  1  0.80545368  0.18653528  0.97473523  1
  O  O634  1  0.97939109  0.04974073  0.83190600  1
  C  C635  1  0.93512953  0.23616013  0.55505581  1
  C  C636  1  0.90011290  0.21517729  0.50619718  1
  C  C637  1  0.99085740  0.07636341  0.75335924  1
  H  H638  1  0.99072040  0.01447306  0.54426162  1
  O  O639  1  0.88214043  0.04492904  0.58625229  1
  C  C640  1  0.86355914  0.01967928  0.52230130  1
  O  O641  1  0.79645659  0.30410514  0.57968126  1
  H  H642  1  0.87108749  0.46756415  0.74560289  1
  C  C643  1  0.86352849  0.33161613  0.64271788  1
  C  C644  1  0.96683528  0.35557853  0.94104027  1
  C  C645  1  0.82887735  0.32159839  0.53392965  1
  C  C646  1  0.99108743  0.32046896  0.94092341  1
  H  H647  1  0.82574085  0.32687462  0.86207950  1
  C  C648  1  0.92614124  0.34815187  0.84337524  1
  O  O649  1  0.97674054  0.48336387  0.54049293  1
  C  C650  1  0.90139395  0.34160541  0.57102529  1
  C  C651  1  0.88943492  0.47145128  0.85522219  1
  C  C652  1  0.93144990  0.35221746  0.68164283  1
  H  H653  1  0.96278434  0.35989129  0.64378339  1
  H  H654  1  0.98250295  0.29550020  0.86670170  1
  H  H655  1  0.90290873  0.41013505  0.93374242  1
  C  C656  1  0.91862119  0.43649331  0.88914493  1
  O  O657  1  0.75837906  0.28227077  0.82902970  1
  H  H658  1  0.93508918  0.43247220  0.77511178  1
  C  C659  1  0.88917171  0.33419477  0.91205141  1
  Cu  Cu660  1  0.79403590  0.25684990  0.68405833  1
  C  C661  1  0.85605542  0.32877679  0.80735216  1
  C  C662  1  0.76334678  0.29481466  0.96449071  1
  H  H663  1  0.86620245  0.47454281  0.95734628  1
  C  C664  1  0.89983045  0.58411191  0.28547309  1
  C  C665  1  0.81472468  0.53658182  0.07938141  1
  C  C666  1  0.87766713  0.55590803  0.19394029  1
  C  C667  1  0.80118931  0.58778954  0.36999894  1
  H  H668  1  0.79897010  0.66080025  0.34105952  1
  H  H669  1  0.80338144  0.60023897  0.24722189  1
  C  C670  1  0.84264650  0.56780888  0.08993944  1
  O  O671  1  0.86101596  0.63824550  0.05433939  1
  C  C672  1  0.87599990  0.71672654  0.04473592  1
  H  H673  1  0.88795117  0.61494788  0.27998769  1
  H  H674  1  0.81762565  0.68662144  0.06321642  1
  C  C675  1  0.84868039  0.68136111  0.00485185  1
  C  C676  1  0.83560188  0.60850873  0.03430559  1
  C  C677  1  0.77443130  0.54630712  0.01747528  1
  C  C678  1  0.93677625  0.53060421  0.39980452  1
  C  C679  1  0.82644901  0.67180528  0.40688249  1
  H  H680  1  0.76412891  0.70842739  0.24556836  1
  C  C681  1  0.76990382  0.73745943  0.28265527  1
  C  C682  1  0.88800708  0.51375742  0.20510954  1
  C  C683  1  0.92893486  0.57137943  0.39433151  1
  H  H684  1  0.82073595  0.51009146  0.14275104  1
  H  H685  1  0.88167279  0.72161726  0.17740311  1
  Cu  Cu686  1  0.98782682  0.70747445  0.23794570  1
  H  H687  1  0.97817778  0.66115038  0.48766021  1
  C  C688  1  0.97365717  0.51825130  0.00674251  1
  H  H689  1  0.94153586  0.52126722  0.04493395  1
  C  C690  1  0.83640443  0.71216480  0.40971898  1
  H  H691  1  0.75533571  0.54528875  0.31345191  1
  C  C692  1  0.77425040  0.55680970  0.40637131  1
  C  C693  1  0.80938386  0.74570460  0.34869487  1
  C  C694  1  0.82901616  0.60218858  0.48944561  1
  C  C695  1  0.85060571  0.64311758  0.48426569  1
  C  C696  1  0.87406121  0.72182442  0.48626658  1
  H  H697  1  0.94279845  0.59171358  0.47783654  1
  H  H698  1  0.99225778  0.53935213  0.07928491  1
  O  O699  1  0.95143297  0.74559175  0.22357214  1
  H  H700  1  0.93469114  0.62730210  0.06253539  1
  H  H701  1  0.90950280  0.71307229  0.00403109  1
  H  H702  1  0.89253090  0.75178972  0.48120827  1
  C  C703  1  0.78561049  0.86116691  0.36413236  1
  C  C704  1  0.89615888  0.80815441  0.20131156  1
  C  C705  1  0.93700551  0.81432559  0.15452899  1
  H  H706  1  0.84426187  0.79510466  0.46140187  1
  H  H707  1  0.98257213  0.84906276  0.05099258  1
  C  C708  1  0.94999470  0.84969977  0.07529756  1
  C  C709  1  0.81448980  0.92390804  0.40242605  1
  C  C710  1  0.86899784  0.83798254  0.15621059  1
  C  C711  1  0.81986695  0.88097645  0.41326939  1
  H  H712  1  0.83585069  0.83839639  0.20038938  1
  H  H713  1  0.84890257  0.86715329  0.44813339  1
  H  H714  1  0.88221850  0.94749418  0.01852134  1
  C  C715  1  0.81722065  0.78629064  0.39030340  1
  C  C716  1  0.84069663  0.94960385  0.47581109  1
  H  H717  1  0.88702606  0.78041717  0.26379242  1
  C  C718  1  0.87932677  0.87162702  0.05758112  1
  H  H719  1  0.78919447  0.93638450  0.34284307  1
  C  C720  1  0.78614352  0.81447465  0.35255369  1
  C  C721  1  0.92171263  0.87803172  0.02376830  1
  C  C722  1  0.96503980  0.78004358  0.18799646  1
  H  H723  1  0.76455961  0.75720570  0.00561072  1
  C  C724  1  0.82848871  0.58270265  0.63429568  1
  H  H725  1  0.84728613  0.59379526  0.73524570  1
  H  H726  1  0.81519064  0.66673883  0.67606386  1
  H  H727  1  0.90700670  0.66120085  0.82783946  1
  O  O728  1  0.90002124  0.61977868  0.67918598  1
  C  C729  1  0.92922061  0.63613990  0.80353648  1
  H  H730  1  0.95793653  0.64882985  0.75255447  1
  C  C731  1  0.93492564  0.73254571  0.74603609  1
  C  C732  1  0.93693254  0.61119692  0.95010487  1
  C  C733  1  0.78551791  0.67168107  0.73824245  1
  C  C734  1  0.93657613  0.70435828  0.62029546  1
  C  C735  1  0.88440620  0.64891971  0.58535233  1
  C  C736  1  0.80045636  0.55248064  0.66381407  1
  H  H737  1  0.80136796  0.53951291  0.77941507  1
  C  C738  1  0.89383921  0.69115077  0.56302888  1
  C  C739  1  0.97485970  0.68832923  0.55994699  1
  O  O740  1  0.99519108  0.54810702  0.57791708  1
  C  C741  1  0.77246800  0.53820567  0.55453104  1
  H  H742  1  0.84275623  0.67857132  0.87486002  1
  C  C743  1  0.77822104  0.65398196  0.89228053  1
  H  H744  1  0.96926712  0.59834991  0.94665864  1
  C  C745  1  0.96834724  0.51726803  0.51392008  1
  H  H746  1  0.76124443  0.71027018  0.55573516  1
  C  C747  1  0.75642456  0.69486068  0.66849368  1
  H  H748  1  0.90702731  0.74578582  0.79234080  1
  C  C749  1  0.97124842  0.74328062  0.81938369  1
  H  H750  1  0.91354044  0.58514738  0.96483307  1
  C  C751  1  0.76718394  0.58584145  0.96339774  1
  H  H752  1  0.90616029  0.50064216  0.84078985  1
  H  H753  1  0.97607911  0.52550368  0.87647501  1
  C  C754  1  0.79621879  0.61677901  0.96738816  1
  H  H755  1  0.86442605  0.74542067  0.99708018  1
  C  C756  1  0.76491243  0.81370093  0.87753983  1
  H  H757  1  0.76150442  0.82228768  0.75263551  1
  H  H758  1  0.88820965  0.96238054  0.63121624  1
  C  C759  1  0.86548387  0.97563717  0.54721058  1
  H  H760  1  0.93257973  0.90592796  0.95375363  1
  C  C761  1  0.75791652  0.76807805  0.88900189  1
  H  H762  1  0.75750561  0.89154580  0.60114149  1
  C  C763  1  0.80632718  0.87372083  0.95214935  1
  O  O764  1  0.80410916  0.83371682  0.95499167  1
  H  H765  1  0.77945086  0.75062680  0.82139091  1
  C  C766  1  0.77891981  0.90465714  0.90741147  1
  H  H767  1  0.75964146  0.96869573  0.86652293  1
  C  C768  1  0.78446687  0.94758606  0.90031955  1
  H  H769  1  0.97081330  0.76457493  0.91204228  1
  H  H770  1  0.83035811  0.99586607  0.92301136  1
  C  C771  1  0.82384015  0.96311108  0.92570234  1
  C  C772  1  0.85234369  0.93662511  0.98486013  1
  C  C773  1  0.84310625  0.89467391  0.99416751  1
