# generated using pymatgen
data_CuH15C22O5
_symmetry_space_group_name_H-M   'P 1'
_cell_length_a   33.55369214
_cell_length_b   29.81884759
_cell_length_c   8.60989170
_cell_angle_alpha   90.00000000
_cell_angle_beta   90.00000000
_cell_angle_gamma   90.00000000
_symmetry_Int_Tables_number   1
_chemical_formula_structural   CuH15C22O5
_chemical_formula_sum   'Cu18 H270 C396 O90'
_cell_volume   8614.47588214
_cell_formula_units_Z   18
loop_
 _symmetry_equiv_pos_site_id
 _symmetry_equiv_pos_as_xyz
  1  'x, y, z'
loop_
 _atom_site_type_symbol
 _atom_site_label
 _atom_site_symmetry_multiplicity
 _atom_site_fract_x
 _atom_site_fract_y
 _atom_site_fract_z
 _atom_site_occupancy
  C  C0  1  0.03430072  0.19472362  0.26735326  1
  C  C1  1  0.04951545  0.15037099  0.23198727  1
  C  C2  1  0.02317137  0.11918318  0.17562512  1
  H  H3  1  0.08082654  0.14428037  0.23770646  1
  H  H4  1  0.03502479  0.08586717  0.14547396  1
  C  C5  1  0.13629992  0.03567139  0.45977392  1
  C  C6  1  0.06122364  0.23219018  0.29333787  1
  O  O7  1  0.09887027  0.22580149  0.30054261  1
  O  O8  1  0.08358913  0.08920921  0.43530485  1
  H  H9  1  0.07778675  0.19638167  0.05922285  1
  H  H10  1  0.21474063  0.21876187  0.26159968  1
  C  C11  1  0.23472568  0.20545697  0.16799468  1
  H  H12  1  0.21508719  0.19194390  0.07092048  1
  H  H13  1  0.05095514  0.18305076  0.48444615  1
  C  C14  1  0.11884877  0.08327505  0.47409161  1
  O  O15  1  0.14390766  0.21463426  0.03751401  1
  C  C16  1  0.11009537  0.00095165  0.40628618  1
  H  H17  1  0.07859708  0.01000147  0.38987435  1
  C  C18  1  0.17669555  0.02816557  0.49255073  1
  O  O19  1  0.07960480  0.31781813  0.05037477  1
  O  O20  1  0.04839892  0.27183832  0.30180574  1
  H  H21  1  0.17287279  0.32520067  0.08221910  1
  Cu  Cu22  1  0.02906169  0.29660361  0.11222824  1
  H  H23  1  0.13236086  0.46704971  0.10246779  1
  C  C24  1  0.02639723  0.39249833  0.47737439  1
  C  C25  1  0.06488393  0.48870472  0.23190495  1
  Cu  Cu26  1  0.13786116  0.25969740  0.18001748  1
  C  C27  1  0.05050982  0.42716069  0.42577492  1
  H  H28  1  0.21079230  0.49079198  0.15542755  1
  C  C29  1  0.18815013  0.30843942  0.38215971  1
  H  H30  1  0.09621854  0.39181033  0.12480188  1
  C  C31  1  0.21843286  0.32434177  0.26993646  1
  C  C32  1  0.22653390  0.48522190  0.26582387  1
  C  C33  1  0.00664200  0.43956602  0.20171854  1
  C  C34  1  0.03998375  0.45144575  0.29131435  1
  C  C35  1  0.20473728  0.32799537  0.11388635  1
  H  H36  1  0.08002059  0.43739972  0.48195894  1
  O  O37  1  0.15257523  0.29915540  0.33744371  1
  C  C38  1  0.11455184  0.40021063  0.01681469  1
  H  H39  1  0.24244880  0.26459621  0.02171889  1
  C  C40  1  0.13433845  0.44139704  0.00540305  1
  C  C41  1  0.02593108  0.18547437  0.71843848  1
  C  C42  1  0.10284070  0.20010531  0.82631485  1
  C  C43  1  0.03353100  0.18594048  0.88160244  1
  C  C44  1  0.07164243  0.19442607  0.93516395  1
  C  C45  1  0.14141728  0.21339663  0.89116981  1
  C  C46  1  0.09513437  0.19387227  0.66689953  1
  C  C47  1  0.05748895  0.18701398  0.60864204  1
  Cu  Cu48  1  0.20859150  0.19282199  0.68477998  1
  C  C49  1  0.04246974  0.05284595  0.71059226  1
  C  C50  1  0.01760685  0.09563399  0.68937994  1
  H  H51  1  0.07413749  0.06050830  0.75213780  1
  H  H52  1  0.12118899  0.19893995  0.59353861  1
  O  O53  1  0.17029541  0.22410813  0.80020014  1
  H  H54  1  0.02843716  0.03167334  0.80381115  1
  H  H55  1  0.00941721  0.18108954  0.96488687  1
  H  H56  1  0.01241458  0.11200171  0.80526866  1
  H  H57  1  0.03232599  0.12024881  0.61212167  1
  H  H58  1  0.19675192  0.05630446  0.53441550  1
  H  H59  1  0.04478189  0.03503857  0.60039844  1
  O  O60  1  0.24079918  0.15409398  0.58771231  1
  O  O61  1  0.14070475  0.11363383  0.51602090  1
  C  C62  1  0.00201551  0.38937250  0.87236745  1
  H  H63  1  0.01001220  0.37413257  0.98211399  1
  C  C64  1  0.15830804  0.42254590  0.74883943  1
  Cu  Cu65  1  0.23628722  0.25478938  0.51944986  1
  H  H66  1  0.02211475  0.41606773  0.83318197  1
  O  O67  1  0.08601530  0.30672517  0.80069511  1
  O  O68  1  0.24306429  0.44811775  0.87300034  1
  C  C69  1  0.09238354  0.32939394  0.90898526  1
  H  H70  1  0.17455814  0.43157578  0.64098244  1
  H  H71  1  0.13500210  0.36082921  0.64898212  1
  H  H72  1  0.22151956  0.33293512  0.87314651  1
  C  C73  1  0.23357075  0.33225996  0.99243986  1
  C  C74  1  0.22584203  0.48767736  0.89413157  1
  C  C75  1  0.11635730  0.37272340  0.88643154  1
  C  C76  1  0.18322633  0.49567371  0.88048952  1
  C  C77  1  0.15798328  0.45231660  0.87970213  1
  H  H78  1  0.22153195  0.42756216  0.92095594  1
  C  C79  1  0.13612460  0.38312902  0.74995315  1
  C  C80  1  0.23832713  0.49929797  0.54118289  1
  H  H81  1  0.03287347  0.36994397  0.58231475  1
  O  O82  1  0.20083322  0.30080252  0.51596449  1
  C  C83  1  0.14396169  0.69127878  0.38606764  1
  O  O84  1  0.11673416  0.62499062  0.30723974  1
  C  C85  1  0.14077361  0.71063527  0.23559111  1
  Cu  Cu86  1  0.10861118  0.56299807  0.30750116  1
  C  C87  1  0.12949115  0.64757547  0.42378231  1
  H  H88  1  0.02512039  0.71177037  0.43600974  1
  O  O89  1  0.15974671  0.54245565  0.29338953  1
  C  C90  1  0.17918124  0.53421467  0.41679333  1
  H  H91  1  0.12518221  0.69312266  0.14107013  1
  O  O92  1  0.09589289  0.50210299  0.31767753  1
  C  C93  1  0.21526199  0.50451338  0.41069573  1
  O  O94  1  0.05598088  0.50849729  0.11421281  1
  H  H95  1  0.24533137  0.68967669  0.08907008  1
  C  C96  1  0.24349871  0.72255160  0.02825052  1
  C  C97  1  0.15588165  0.75272795  0.21043736  1
  H  H98  1  0.05979435  0.75732241  0.10374792  1
  C  C99  1  0.24900313  0.87021548  0.30870182  1
  C  C100  1  0.16443622  0.86353223  0.37743247  1
  C  C101  1  0.07134348  0.86878843  0.08155098  1
  C  C102  1  0.19128812  0.98481722  0.47578423  1
  C  C103  1  0.12422237  0.95762001  0.38081991  1
  C  C104  1  0.00050177  0.84621679  0.01912629  1
  C  C105  1  0.18480354  0.90459348  0.36623920  1
  H  H106  1  0.09470083  0.86961597  0.17299530  1
  C  C107  1  0.22839810  0.82847258  0.30350962  1
  H  H108  1  0.11114176  0.80269566  0.25432895  1
  C  C109  1  0.14724443  0.88168322  0.00285935  1
  C  C110  1  0.10669239  0.81389405  0.37626375  1
  H  H111  1  0.06227092  0.76619092  0.45486261  1
  H  H112  1  0.24371418  0.79547594  0.29072746  1
  H  H113  1  0.10783990  0.92602069  0.35582473  1
  O  O114  1  0.12517575  0.85853983  0.40551800  1
  H  H115  1  0.14241766  0.86897707  0.11867668  1
  H  H116  1  0.20775749  0.89193506  0.08284576  1
  H  H117  1  0.02909572  0.93875381  0.37598311  1
  C  C118  1  0.17597013  0.77715440  0.33227746  1
  H  H119  1  0.04853498  0.88210596  0.32410922  1
  C  C120  1  0.02297012  0.90179953  0.37776210  1
  C  C121  1  0.16663112  0.95021602  0.40374275  1
  C  C122  1  0.22582471  0.90884237  0.32443132  1
  H  H123  1  0.23893894  0.94224103  0.31970535  1
  C  C124  1  0.18787485  0.82513185  0.33589713  1
  C  C125  1  0.06484236  0.80405785  0.44150122  1
  H  H126  1  0.04294293  0.81616211  0.35133390  1
  C  C127  1  0.03272993  0.85800045  0.10484708  1
  H  H128  1  0.15379777  0.76772849  0.09436133  1
  C  C129  1  0.17800655  0.75741623  0.48144052  1
  H  H130  1  0.02326103  0.93188485  0.07613471  1
  H  H131  1  0.12877526  0.79767537  0.45500898  1
  C  C132  1  0.11244776  0.67571562  0.84278754  1
  C  C133  1  0.13644029  0.71342653  0.87309004  1
  C  C134  1  0.12529340  0.63165946  0.87379660  1
  C  C135  1  0.16619518  0.62271650  0.89680436  1
  H  H136  1  0.10493625  0.60405160  0.85139442  1
  C  C137  1  0.17684732  0.70399485  0.90492951  1
  C  C138  1  0.19132482  0.66023645  0.92240133  1
  H  H139  1  0.05233890  0.61303416  0.88858883  1
  C  C140  1  0.04628308  0.63329980  0.78508343  1
  C  C141  1  0.07314068  0.67028760  0.75680464  1
  C  C142  1  0.18373393  0.57638002  0.90524384  1
  H  H143  1  0.22123826  0.65472918  0.96436744  1
  C  C144  1  0.22523156  0.57138085  0.92619572  1
  H  H145  1  0.12973010  0.53911867  0.84631698  1
  C  C146  1  0.16249728  0.53623805  0.87357160  1
  H  H147  1  0.16204799  0.69897351  0.62178278  1
  C  C148  1  0.06295093  0.69743972  0.62999946  1
  C  C149  1  0.01149179  0.62456446  0.70066285  1
  C  C150  1  0.20895933  0.73690726  0.94056892  1
  H  H151  1  0.08781533  0.71998321  0.59193496  1
  H  H152  1  0.24296976  0.60239570  0.93448264  1
  Cu  Cu153  1  0.18628180  0.61111612  0.57639898  1
  O  O154  1  0.23873977  0.60424824  0.58021605  1
  C  C155  1  0.16222648  0.71512517  0.50751709  1
  H  H156  1  0.22996545  0.51285468  0.65669198  1
  C  C157  1  0.24523286  0.53021407  0.92321537  1
  C  C158  1  0.00283310  0.65545294  0.57907644  1
  O  O159  1  0.17089436  0.55080193  0.54369793  1
  C  C160  1  0.05413457  0.74547743  0.98193158  1
  H  H161  1  0.05994871  0.70904933  0.97541851  1
  C  C162  1  0.02778532  0.69264574  0.54202558  1
  O  O163  1  0.13525156  0.62920726  0.55261358  1
  H  H164  1  0.00146711  0.85524547  0.55012434  1
  C  C165  1  0.00998387  0.85285839  0.85748203  1
  O  O166  1  0.05234772  0.88473939  0.65770263  1
  H  H167  1  0.06933397  0.76369841  0.75155995  1
  H  H168  1  0.18908281  0.77971297  0.58100319  1
  H  H169  1  0.17698680  0.79631730  0.83975246  1
  O  O170  1  0.12469715  0.75710531  0.86763973  1
  C  C171  1  0.17522253  0.90953436  0.71774242  1
  H  H172  1  0.08349749  0.80683179  0.89291847  1
  H  H173  1  0.05896201  0.82025398  0.55466858  1
  C  C174  1  0.20192533  0.90851125  0.84723082  1
  C  C175  1  0.13500565  0.89872023  0.72867761  1
  C  C176  1  0.20540819  0.78219727  0.88417990  1
  H  H177  1  0.02099464  0.75126025  0.94348634  1
  C  C178  1  0.11869826  0.88686620  0.87749274  1
  C  C179  1  0.08251928  0.76984139  0.86703019  1
  H  H180  1  0.22205784  0.97822675  0.50925305  1
  C  C181  1  0.04644562  0.87372676  0.80390947  1
  C  C182  1  0.07737950  0.87750352  0.91598909  1
  C  C183  1  0.24539070  0.91344104  0.82996086  1
  H  H184  1  0.11693143  0.89649520  0.62629554  1
  C  C185  1  0.23996551  0.80718958  0.89006015  1
  C  C186  1  0.01697336  0.88743165  0.55064986  1
  H  H187  1  0.18847515  0.91693414  0.60766730  1
  H  H188  1  0.02135671  0.77554461  0.69678056  1
  H  H189  1  0.23491969  0.84184892  0.86096742  1
  H  H190  1  0.05165605  0.97250379  0.94913198  1
  H  H191  1  0.01552399  0.93330417  0.87361731  1
  C  C192  1  0.18603632  0.89407324  0.98942100  1
  C  C193  1  0.02139966  0.95363283  0.97445721  1
  H  H194  1  0.32414990  0.20095234  0.28046447  1
  C  C195  1  0.31677471  0.16398066  0.27950240  1
  C  C196  1  0.28845674  0.14250349  0.38456396  1
  C  C197  1  0.33460615  0.13781352  0.16844757  1
  C  C198  1  0.30146783  0.06917137  0.27683913  1
  C  C199  1  0.32877729  0.08914654  0.16587981  1
  H  H200  1  0.29407470  0.03294431  0.27645946  1
  C  C201  1  0.28182513  0.09692230  0.38157335  1
  H  H202  1  0.36142228  0.02460788  0.40630197  1
  H  H203  1  0.47087030  0.03276072  0.43278945  1
  C  C204  1  0.34730069  0.05611751  0.06154195  1
  H  H205  1  0.35673380  0.15314222  0.09424937  1
  H  H206  1  0.39085517  0.01993608  0.20197024  1
  C  C207  1  0.26159661  0.24253928  0.09913348  1
  H  H208  1  0.25276530  0.17760629  0.21986786  1
  C  C209  1  0.26680222  0.17060613  0.49836970  1
  H  H210  1  0.29135036  0.01359669  0.07701834  1
  H  H211  1  0.26112143  0.08245076  0.46396785  1
  C  C212  1  0.32145712  0.01725182  0.03298188  1
  O  O213  1  0.40110379  0.10855583  0.01347261  1
  H  H214  1  0.46052446  0.00069394  0.12943461  1
  O  O215  1  0.27428937  0.21212361  0.49627764  1
  H  H216  1  0.46836157  0.14155597  0.04723294  1
  H  H217  1  0.49570552  0.33892585  0.21978034  1
  C  C218  1  0.38462789  0.32651518  0.06430040  1
  H  H219  1  0.27737919  0.26230993  0.18758189  1
  C  C220  1  0.46024269  0.36961001  0.02562758  1
  H  H221  1  0.39651240  0.43143962  0.04125012  1
  C  C222  1  0.36825414  0.37677265  0.28172991  1
  C  C223  1  0.31709988  0.41734930  0.38431010  1
  H  H224  1  0.47156856  0.45462078  0.45410676  1
  H  H225  1  0.35394652  0.31285542  0.07522673  1
  H  H226  1  0.44629931  0.41128284  0.22923894  1
  O  O227  1  0.34114286  0.44194020  0.13393976  1
  C  C228  1  0.25854080  0.33275053  0.31736890  1
  C  C229  1  0.28485307  0.45182062  0.38991213  1
  C  C230  1  0.43773367  0.38387641  0.15188150  1
  C  C231  1  0.28654871  0.33522358  0.19850914  1
  C  C232  1  0.34375171  0.41471637  0.25341914  1
  H  H233  1  0.26593529  0.32938715  0.44417114  1
  H  H234  1  0.26739482  0.44456321  0.13680977  1
  C  C235  1  0.37090111  0.34789153  0.41246654  1
  H  H236  1  0.39301339  0.32193505  0.40311289  1
  C  C237  1  0.39893058  0.36242458  0.16227919  1
  C  C238  1  0.26030385  0.45953926  0.25311294  1
  H  H239  1  0.31781458  0.33669374  0.21819632  1
  C  C240  1  0.27500784  0.32905949  0.03817562  1
  C  C241  1  0.43845526  0.03865390  0.80733262  1
  C  C242  1  0.41931260  0.13058685  0.87359039  1
  H  H243  1  0.29087119  0.17577219  0.85137908  1
  H  H244  1  0.27113012  0.09621878  0.82806174  1
  C  C245  1  0.34415140  0.20416331  0.73690111  1
  C  C246  1  0.29654136  0.09229602  0.75256884  1
  C  C247  1  0.31641938  0.17091372  0.77245949  1
  C  C248  1  0.32187499  0.12696155  0.71784287  1
  C  C249  1  0.30466917  0.05211139  0.66677276  1
  H  H250  1  0.39756021  0.15663193  0.83812925  1
  C  C251  1  0.39990717  0.03210597  0.89563052  1
  C  C252  1  0.46126728  0.14845133  0.91862243  1
  C  C253  1  0.47578641  0.05062177  0.87365059  1
  H  H254  1  0.42211032  0.10540503  0.77639194  1
  O  O255  1  0.29614394  0.23029466  0.99526759  1
  C  C256  1  0.43675742  0.03347702  0.64381893  1
  C  C257  1  0.31559341  0.02018667  0.58977337  1
  H  H258  1  0.34554304  0.12146045  0.63233987  1
  C  C259  1  0.37901023  0.19881394  0.63059043  1
  H  H260  1  0.48424654  0.13003891  0.85491828  1
  H  H261  1  0.40811865  0.02800930  0.59181192  1
  C  C262  1  0.47175608  0.03871343  0.56177706  1
  O  O263  1  0.39159969  0.16884116  0.55056627  1
  H  H264  1  0.40596172  0.22507011  0.61325524  1
  C  C265  1  0.38379049  0.06718971  0.98596705  1
  H  H266  1  0.48041125  0.05277897  0.99824617  1
  H  H267  1  0.46500747  0.18418186  0.88733576  1
  C  C268  1  0.33490970  0.25128477  0.77687590  1
  H  H269  1  0.33457547  0.48391967  0.85461486  1
  O  O270  1  0.47510442  0.49692388  0.91678866  1
  C  C271  1  0.31014188  0.26167949  0.90593891  1
  C  C272  1  0.36711265  0.43608417  0.99506862  1
  H  H273  1  0.35840774  0.40129056  0.94822004  1
  C  C274  1  0.34922788  0.28170191  0.66488840  1
  H  H275  1  0.28762567  0.46038329  0.64357952  1
  O  O276  1  0.46092932  0.29316135  0.70810975  1
  C  C277  1  0.33684417  0.32587075  0.67732090  1
  H  H278  1  0.37773845  0.46294596  0.75672015  1
  C  C279  1  0.31930560  0.39269432  0.52039176  1
  H  H280  1  0.40231977  0.40855324  0.55874343  1
  H  H281  1  0.44769758  0.38288583  0.59252668  1
  C  C282  1  0.36674076  0.47404925  0.87198096  1
  C  C283  1  0.34472879  0.35491115  0.53720065  1
  H  H284  1  0.42284551  0.41645885  0.74773427  1
  H  H285  1  0.46917449  0.47236307  0.65959429  1
  C  C286  1  0.40703031  0.31591866  0.93948481  1
  C  C287  1  0.31304560  0.34014354  0.80473763  1
  C  C288  1  0.43067530  0.41426798  0.62018136  1
  C  C289  1  0.27255779  0.47084752  0.53587865  1
  H  H290  1  0.39691493  0.28997442  0.85984275  1
  C  C291  1  0.44503431  0.33697098  0.92204489  1
  C  C292  1  0.46966375  0.32192161  0.78952823  1
  H  H293  1  0.30350532  0.37574765  0.82645855  1
  C  C294  1  0.29983515  0.30906267  0.91137246  1
  H  H295  1  0.29680399  0.40002693  0.60863814  1
  C  C296  1  0.45206207  0.45643739  0.56517921  1
  H  H297  1  0.36526623  0.26868403  0.55969440  1
  H  H298  1  0.48779939  0.38710790  0.99795068  1
  C  C299  1  0.43351494  0.71727894  0.11385033  1
  C  C300  1  0.46346395  0.68378065  0.08004365  1
  C  C301  1  0.42839009  0.73007090  0.26978351  1
  O  O302  1  0.47857313  0.65941526  0.18284668  1
  H  H303  1  0.44989996  0.71509554  0.35471330  1
  O  O304  1  0.42695431  0.59047067  0.12087400  1
  C  C305  1  0.34855935  0.55314164  0.10638259  1
  C  C306  1  0.30953982  0.53832758  0.08847055  1
  H  H307  1  0.29330479  0.51979433  0.17798701  1
  H  H308  1  0.36402466  0.55409147  0.21940028  1
  Cu  Cu309  1  0.48580002  0.59598396  0.14222823  1
  H  H310  1  0.39553231  0.64712972  0.33011914  1
  C  C311  1  0.37292925  0.62831978  0.38742728  1
  C  C312  1  0.33339477  0.64104652  0.40030002  1
  H  H313  1  0.32291625  0.67465657  0.37260570  1
  C  C314  1  0.30650003  0.60721175  0.44109069  1
  C  C315  1  0.38414018  0.58431865  0.44352939  1
  C  C316  1  0.40815109  0.73781046  0.00804929  1
  C  C317  1  0.26572944  0.62589486  0.49462867  1
  O  O318  1  0.25928300  0.66424998  0.46731464  1
  H  H319  1  0.43144328  0.65595458  0.46817458  1
  O  O320  1  0.49498480  0.53011617  0.12917817  1
  C  C321  1  0.44702569  0.62367353  0.48688258  1
  C  C322  1  0.42817777  0.58172403  0.47455456  1
  C  C323  1  0.31555283  0.56025539  0.45794839  1
  H  H324  1  0.28887768  0.53904582  0.47319720  1
  C  C325  1  0.35579575  0.54820291  0.46697513  1
  H  H326  1  0.36532326  0.51372609  0.49877693  1
  H  H327  1  0.30232720  0.73874806  0.09740497  1
  H  H328  1  0.40798682  0.86074465  0.49613671  1
  O  O329  1  0.42820067  0.86169407  0.24404089  1
  H  H330  1  0.40294163  0.77816908  0.43270331  1
  C  C331  1  0.29421217  0.87160792  0.28711172  1
  C  C332  1  0.37138376  0.95906594  0.30260728  1
  C  C333  1  0.40113230  0.98457976  0.21548171  1
  C  C334  1  0.36092635  0.90939099  0.28259501  1
  H  H335  1  0.46185055  0.80226284  0.42405683  1
  C  C336  1  0.35352611  0.98766311  0.40624043  1
  C  C337  1  0.38057698  0.78752128  0.19537177  1
  C  C338  1  0.45287206  0.89156980  0.22182842  1
  C  C339  1  0.35648155  0.82986624  0.24539341  1
  C  C340  1  0.38007777  0.86858490  0.26266115  1
  C  C341  1  0.46398034  0.93508947  0.19624829  1
  C  C342  1  0.38244588  0.77305561  0.03923586  1
  C  C343  1  0.31412021  0.83051737  0.26591281  1
  H  H344  1  0.29745812  0.79881653  0.25816483  1
  C  C345  1  0.40438620  0.76591566  0.31385318  1
  H  H346  1  0.48419062  0.87826323  0.21076648  1
  H  H347  1  0.30507685  0.94273844  0.30784244  1
  C  C348  1  0.43921663  0.97505046  0.17816188  1
  C  C349  1  0.31832824  0.91053462  0.29266644  1
  C  C350  1  0.27431941  0.75151518  0.04012022  1
  H  H351  1  0.29407655  0.57087508  0.70683615  1
  C  C352  1  0.31040309  0.56092776  0.81266637  1
  C  C353  1  0.34957937  0.57436364  0.83249557  1
  H  H354  1  0.45418928  0.69930287  0.59073969  1
  H  H355  1  0.36579212  0.59193317  0.73877823  1
  H  H356  1  0.41437038  0.72521958  0.88952226  1
  C  C357  1  0.48643885  0.70503438  0.58457599  1
  Cu  Cu358  1  0.47896796  0.62169855  0.85190836  1
  O  O359  1  0.42571253  0.60535023  0.86907859  1
  C  C360  1  0.48765616  0.54444803  0.53008360  1
  O  O361  1  0.47031849  0.67676589  0.93553230  1
  C  C362  1  0.48745029  0.62523651  0.51067307  1
  C  C363  1  0.44517033  0.53886972  0.50567988  1
  O  O364  1  0.35177835  0.70065396  0.73208596  1
  C  C365  1  0.28912065  0.54166340  0.94065644  1
  H  H366  1  0.38660198  0.50307357  0.90443891  1
  O  O367  1  0.42621216  0.50150704  0.50617762  1
  C  C368  1  0.36736104  0.72250951  0.65703613  1
  C  C369  1  0.36896569  0.57142764  0.98067311  1
  C  C370  1  0.40934461  0.58891910  0.99306800  1
  H  H371  1  0.42648566  0.82817493  0.98992046  1
  O  O372  1  0.26562971  0.90981451  0.95496467  1
  C  C373  1  0.38053758  0.98876554  0.87024439  1
  O  O374  1  0.30851831  0.81779069  0.94566650  1
  C  C375  1  0.47217678  0.78277135  0.66584381  1
  O  O376  1  0.26135863  0.92087411  0.70110370  1
  H  H377  1  0.36555906  0.79041877  0.94494880  1
  C  C378  1  0.42302743  0.83794000  0.58629706  1
  Cu  Cu379  1  0.31460897  0.88249504  0.96122474  1
  H  H380  1  0.39514448  0.95884386  0.81334354  1
  C  C381  1  0.38525851  0.87611153  0.78653153  1
  H  H382  1  0.47588418  0.76712649  0.91682713  1
  O  O383  1  0.37010100  0.87709041  0.91999073  1
  C  C384  1  0.34525915  0.99231347  0.94239317  1
  C  C385  1  0.43529160  0.82287842  0.86932051  1
  C  C386  1  0.45208942  0.80627286  0.54562935  1
  C  C387  1  0.41685680  0.84539028  0.74656369  1
  Cu  Cu388  1  0.31720497  0.90830622  0.69070803  1
  C  C389  1  0.27650049  0.79515941  0.96211186  1
  O  O390  1  0.36933019  0.89678507  0.67507902  1
  C  C391  1  0.46160329  0.78935304  0.82733453  1
  O  O392  1  0.32508983  0.98198058  0.50817363  1
  H  H393  1  0.64155724  0.10130569  0.17066406  1
  C  C394  1  0.66916593  0.08731007  0.13241175  1
  C  C395  1  0.70011755  0.11225903  0.07650664  1
  O  O396  1  0.54133563  0.04659810  0.38338971  1
  C  C397  1  0.67555147  0.04059600  0.11365965  1
  H  H398  1  0.69820319  0.14783720  0.07850114  1
  C  C399  1  0.63676356  0.20122788  0.27437763  1
  O  O400  1  0.61319758  0.03032651  0.26565132  1
  H  H401  1  0.60995169  0.17894680  0.27513998  1
  C  C402  1  0.70857266  0.21009404  0.34100896  1
  C  C403  1  0.67231858  0.18679522  0.35254959  1
  C  C404  1  0.64342947  0.01061253  0.17225959  1
  Cu  Cu405  1  0.56451817  0.01183474  0.23528137  1
  C  C406  1  0.70915459  0.02062689  0.04542154  1
  C  C407  1  0.63960998  0.24302404  0.20723856  1
  H  H408  1  0.73595912  0.19775514  0.39430037  1
  C  C409  1  0.66771793  0.14382539  0.43307458  1
  O  O410  1  0.63472154  0.12219226  0.43822662  1
  C  C411  1  0.73655768  0.09274470  0.01540772  1
  Cu  Cu412  1  0.62554232  0.06489081  0.49878949  1
  C  C413  1  0.74900845  0.40980082  0.07557104  1
  C  C414  1  0.59894315  0.45718649  0.17353144  1
  H  H415  1  0.61227083  0.25452946  0.14482593  1
  H  H416  1  0.51341995  0.28152294  0.16278151  1
  C  C417  1  0.67388482  0.41006910  0.09277640  1
  H  H418  1  0.52652149  0.30747135  0.34944886  1
  C  C419  1  0.63319851  0.34031041  0.14715967  1
  H  H420  1  0.73483909  0.32043358  0.17470257  1
  C  C421  1  0.60589149  0.42010166  0.07040515  1
  C  C422  1  0.71083633  0.25266690  0.27965081  1
  H  H423  1  0.57306282  0.42930050  0.36646572  1
  H  H424  1  0.73823228  0.27074579  0.27471255  1
  C  C425  1  0.70908920  0.38523713  0.11161480  1
  C  C426  1  0.63854657  0.38655177  0.10280830  1
  H  H427  1  0.72784790  0.47561922  0.15248596  1
  C  C428  1  0.67453844  0.27201226  0.21254397  1
  C  C429  1  0.56458204  0.45134806  0.46129717  1
  Cu  Cu430  1  0.67736538  0.38479207  0.42668065  1
  H  H431  1  0.56314364  0.37566261  0.18660684  1
  C  C432  1  0.67106448  0.31891957  0.17117871  1
  H  H433  1  0.54922245  0.34281175  0.01756945  1
  C  C434  1  0.70862501  0.34102556  0.15742889  1
  C  C435  1  0.55568750  0.34113888  0.14502161  1
  H  H436  1  0.51558329  0.47714991  0.32347117  1
  C  C437  1  0.53190800  0.47779240  0.43854204  1
  H  H438  1  0.67697980  0.44570658  0.05676146  1
  C  C439  1  0.52134578  0.31487791  0.22232891  1
  C  C440  1  0.53805734  0.47562929  0.02596685  1
  O  O441  1  0.71057504  0.44092971  0.42630866  1
  C  C442  1  0.56656124  0.48492375  0.14419768  1
  O  O443  1  0.60000764  0.31861980  0.16065544  1
  H  H444  1  0.61743301  0.46157031  0.27418730  1
  O  O445  1  0.63111086  0.40296082  0.49993033  1
  Cu  Cu446  1  0.70758604  0.10631210  0.70091901  1
  C  C447  1  0.69492225  0.02151366  0.59790489  1
  O  O448  1  0.71859052  0.05031127  0.65759953  1
  O  O449  1  0.65808804  0.02516655  0.60493382  1
  C  C450  1  0.70907134  0.22162863  0.79049662  1
  H  H451  1  0.53864252  0.04904858  0.85116287  1
  H  H452  1  0.73502048  0.23424279  0.72258839  1
  C  C453  1  0.67227876  0.22522372  0.68391289  1
  O  O454  1  0.57740886  0.05417529  0.59486512  1
  H  H455  1  0.64623343  0.20698068  0.72998534  1
  O  O456  1  0.72270829  0.17408425  0.85624366  1
  C  C457  1  0.50863736  0.04577996  0.62785175  1
  C  C458  1  0.51081718  0.04912332  0.79202191  1
  C  C459  1  0.54425032  0.05050328  0.52963386  1
  O  O460  1  0.69819496  0.13039697  0.50226555  1
  H  H461  1  0.70607871  0.23892614  0.90541101  1
  H  H462  1  0.67626960  0.21619235  0.55713151  1
  C  C463  1  0.74098024  0.04616397  0.99133545  1
  H  H464  1  0.66731506  0.26187119  0.69168214  1
  H  H465  1  0.51841299  0.42554365  0.84411963  1
  C  C466  1  0.62266166  0.42637742  0.61862058  1
  O  O467  1  0.64040136  0.42577070  0.74907636  1
  O  O468  1  0.51273708  0.33930036  0.79989274  1
  Cu  Cu469  1  0.69693320  0.42839166  0.78187160  1
  O  O470  1  0.70152407  0.36011925  0.75020701  1
  C  C471  1  0.57506889  0.41072453  0.95939571  1
  H  H472  1  0.59841869  0.35405599  0.71017563  1
  H  H473  1  0.52631436  0.32049472  0.59295860  1
  H  H474  1  0.57803950  0.38039302  0.88721333  1
  H  H475  1  0.59986794  0.29999177  0.61083640  1
  H  H476  1  0.74230446  0.32579164  0.93851770  1
  H  H477  1  0.60023003  0.30339909  0.81842261  1
  C  C478  1  0.54040304  0.31500674  0.71097802  1
  O  O479  1  0.72449705  0.46489307  0.65339577  1
  C  C480  1  0.58663195  0.31924441  0.71355437  1
  C  C481  1  0.58766751  0.45527852  0.59794538  1
  H  H482  1  0.59379906  0.48618922  0.82614914  1
  C  C483  1  0.73605842  0.44679119  0.53001327  1
  C  C484  1  0.72200152  0.34041912  0.65084298  1
  C  C485  1  0.54163454  0.43669303  0.92942338  1
  H  H486  1  0.52961924  0.27986737  0.74737572  1
  C  C487  1  0.57608986  0.48477065  0.71802552  1
  O  O488  1  0.71561887  0.34565668  0.50631381  1
  H  H489  1  0.59466243  0.64013081  0.25977665  1
  C  C490  1  0.60236332  0.66527785  0.17110752  1
  C  C491  1  0.63170643  0.69602165  0.20106823  1
  H  H492  1  0.56574020  0.51294082  0.21629473  1
  O  O493  1  0.54163800  0.60493038  0.11326847  1
  H  H494  1  0.64692942  0.69690662  0.31354535  1
  C  C495  1  0.58153928  0.66315551  0.02868312  1
  C  C496  1  0.63852350  0.72851385  0.08417516  1
  H  H497  1  0.70894048  0.73268644  0.02837763  1
  C  C498  1  0.50130819  0.50308859  0.01138964  1
  H  H499  1  0.51980760  0.73990902  0.27928267  1
  C  C500  1  0.55145930  0.62985931  0.00044354  1
  H  H501  1  0.65334185  0.95521776  0.47465501  1
  C  C502  1  0.50674833  0.94620281  0.17057713  1
  H  H503  1  0.59641324  0.75413081  0.30388437  1
  H  H504  1  0.51671598  0.79350706  0.18498533  1
  C  C505  1  0.67235340  0.84425517  0.23071662  1
  C  C506  1  0.68504402  0.95294281  0.44854492  1
  C  C507  1  0.66398418  0.88349765  0.32731972  1
  H  H508  1  0.73552602  0.86506413  0.22593865  1
  C  C509  1  0.53414953  0.77388712  0.27118236  1
  O  O510  1  0.51870869  0.98811521  0.15785967  1
  H  H511  1  0.72545608  0.91040614  0.32053986  1
  C  C512  1  0.70050047  0.76500015  0.08185119  1
  H  H513  1  0.59397547  0.87887187  0.31264083  1
  C  C514  1  0.72776805  0.79883592  0.12633617  1
  C  C515  1  0.71304832  0.83801958  0.19487093  1
  H  H516  1  0.58114243  0.75980023  0.10608295  1
  O  O517  1  0.64323282  0.97155054  0.15407480  1
  C  C518  1  0.57760639  0.77328054  0.22181300  1
  C  C519  1  0.69410131  0.91596647  0.35944707  1
  C  C520  1  0.66093892  0.77181943  0.11869904  1
  C  C521  1  0.62315706  0.89430457  0.36880493  1
  C  C522  1  0.64345251  0.81110399  0.19080986  1
  O  O523  1  0.60616014  0.81580525  0.22705529  1
  H  H524  1  0.53090647  0.79215739  0.37771116  1
  O  O525  1  0.52985739  0.91493959  0.15517883  1
  H  H526  1  0.71018816  0.98392855  0.03378329  1
  O  O527  1  0.60430035  0.91956149  0.45922633  1
  H  H528  1  0.61439354  0.79140846  0.48597256  1
  H  H529  1  0.68801987  0.79658596  0.48023074  1
  H  H530  1  0.57485740  0.69420209  0.79455482  1
  H  H531  1  0.53071489  0.53431152  0.78721359  1
  H  H532  1  0.69585095  0.65493102  0.63352264  1
  C  C533  1  0.54235851  0.51120909  0.69386771  1
  C  C534  1  0.51806727  0.50712378  0.55835409  1
  H  H535  1  0.62330568  0.65529784  0.63883071  1
  C  C536  1  0.68090513  0.68736285  0.61512973  1
  C  C537  1  0.63915066  0.68566245  0.60384244  1
  C  C538  1  0.56887085  0.71805837  0.56011590  1
  C  C539  1  0.61275661  0.72255439  0.57485384  1
  H  H540  1  0.54174150  0.58256347  0.53762991  1
  O  O541  1  0.53710267  0.62886030  0.86510670  1
  C  C542  1  0.50852320  0.58392145  0.53025756  1
  C  C543  1  0.59099397  0.69327784  0.90662141  1
  C  C544  1  0.55087606  0.67572860  0.53262892  1
  C  C545  1  0.69750551  0.72959407  0.57935201  1
  C  C546  1  0.74152397  0.73845420  0.59051159  1
  C  C547  1  0.61780067  0.72776274  0.93433507  1
  H  H548  1  0.62801429  0.74843449  0.83883678  1
  C  C549  1  0.51087508  0.66810328  0.53994256  1
  C  C550  1  0.50238606  0.74696438  0.61579002  1
  H  H551  1  0.56911424  0.64641086  0.50304486  1
  H  H552  1  0.59035891  0.87974169  0.68485347  1
  H  H553  1  0.50745813  0.83129778  0.76017208  1
  H  H554  1  0.52480164  0.84680280  0.57066927  1
  C  C555  1  0.71249012  0.98491635  0.50462740  1
  C  C556  1  0.54422755  0.75487480  0.60458942  1
  H  H557  1  0.54450914  0.90927578  0.75135617  1
  H  H558  1  0.56749851  0.86719114  0.87767167  1
  C  C559  1  0.63223247  0.76388683  0.52827157  1
  C  C560  1  0.67410770  0.76553098  0.52408420  1
  O  O561  1  0.56031118  0.79369790  0.64282780  1
  C  C562  1  0.53573246  0.83729741  0.68675535  1
  C  C563  1  0.56069033  0.87597816  0.74980353  1
  C  C564  1  0.96770573  0.16900245  0.24485146  1
  C  C565  1  0.98108970  0.12988210  0.16420523  1
  H  H566  1  0.93722860  0.17346769  0.27215500  1
  C  C567  1  0.95091723  0.10386725  0.07821428  1
  H  H568  1  0.98271609  0.23584677  0.32078850  1
  H  H569  1  0.89557043  0.01855041  0.34556099  1
  H  H570  1  0.86484094  0.01299814  0.09041063  1
  H  H571  1  0.91259828  0.16232428  0.09888191  1
  H  H572  1  0.81170998  0.07287505  0.05044363  1
  C  C573  1  0.91626317  0.12933483  0.04532927  1
  O  O574  1  0.98931434  0.03557924  0.04413498  1
  H  H575  1  0.93508620  0.08760601  0.40022093  1
  C  C576  1  0.88238491  0.04842583  0.40259363  1
  C  C577  1  0.90422354  0.08623231  0.43401073  1
  H  H578  1  0.88179944  0.20712366  0.47180114  1
  C  C579  1  0.82277413  0.00196002  0.44087844  1
  C  C580  1  0.84342009  0.04451820  0.45958973  1
  C  C581  1  0.99321720  0.20392198  0.27614057  1
  C  C582  1  0.95755914  0.05908736  0.01870374  1
  C  C583  1  0.79321722  0.47265613  0.09240594  1
  C  C584  1  0.95472483  0.35913341  0.46725090  1
  O  O585  1  0.97830854  0.28279392  0.13187987  1
  C  C586  1  0.82211264  0.40390599  0.03502946  1
  H  H587  1  0.95089951  0.40115997  0.19704899  1
  H  H588  1  0.86361354  0.49419723  0.27378749  1
  H  H589  1  0.99802364  0.45957264  0.09679393  1
  H  H590  1  0.77084715  0.29483458  0.46505145  1
  O  O591  1  0.86185497  0.47492427  0.02193230  1
  C  C592  1  0.91742096  0.38403605  0.47865309  1
  H  H593  1  0.82952652  0.35205599  0.30343854  1
  O  O594  1  0.91679544  0.42705398  0.44414971  1
  H  H595  1  0.88231660  0.39685907  0.24830041  1
  C  C596  1  0.88103149  0.45489021  0.47156590  1
  C  C597  1  0.98075671  0.40654018  0.25596275  1
  C  C598  1  0.75428664  0.45521988  0.10835930  1
  H  H599  1  0.93706053  0.33976028  0.25233197  1
  H  H600  1  0.98978994  0.30071820  0.47719294  1
  C  C601  1  0.82926477  0.45125778  0.04328293  1
  C  C602  1  0.91547946  0.34118156  0.15680167  1
  C  C603  1  0.78476468  0.38360992  0.04799652  1
  C  C604  1  0.78443077  0.39502574  0.41337930  1
  H  H605  1  0.77742731  0.25402627  0.03437147  1
  H  H606  1  0.85197253  0.43943207  0.42768563  1
  H  H607  1  0.76362042  0.38884402  0.31662626  1
  C  C608  1  0.82194522  0.37334940  0.40514707  1
  C  C609  1  0.88472616  0.37178266  0.15222767  1
  C  C610  1  0.98866834  0.38513431  0.40093820  1
  C  C611  1  0.94944954  0.27664617  0.02571736  1
  H  H612  1  0.92125019  0.44584252  0.04410597  1
  C  C613  1  0.91508778  0.30923002  0.03785796  1
  H  H614  1  0.78325321  0.34790446  0.04602912  1
  C  C615  1  0.85600074  0.37066758  0.03262450  1
  H  H616  1  0.86628665  0.05331434  0.82431303  1
  C  C617  1  0.79640790  0.18538925  0.84299828  1
  C  C618  1  0.96030938  0.14144714  0.61252085  1
  O  O619  1  0.97357443  0.10070905  0.63163057  1
  C  C620  1  0.83615302  0.17558430  0.87714827  1
  H  H621  1  0.85923020  0.20125446  0.85710571  1
  C  C622  1  0.88839775  0.06856681  0.89734157  1
  C  C623  1  0.79578029  0.23458266  0.79474705  1
  H  H624  1  0.83698473  0.14753118  0.63635870  1
  C  C625  1  0.97027321  0.22374500  0.63431827  1
  C  C626  1  0.92391117  0.04581007  0.92576707  1
  C  C627  1  0.84927877  0.11952222  0.57216720  1
  H  H628  1  0.94620759  0.01796505  0.62430656  1
  H  H629  1  0.81352095  0.22892451  0.53692229  1
  C  C630  1  0.98345733  0.18074115  0.65590649  1
  C  C631  1  0.84113385  0.13229468  0.94589548  1
  C  C632  1  0.76012165  0.16260892  0.87792169  1
  H  H633  1  0.79274410  0.07996634  0.56574665  1
  C  C634  1  0.92212733  0.15595097  0.56249643  1
  C  C635  1  0.82548900  0.08143226  0.54223753  1
  C  C636  1  0.93413798  0.23659367  0.56099820  1
  O  O637  1  0.77946564  0.00590076  0.50271061  1
  C  C638  1  0.89075777  0.12116850  0.52859308  1
  C  C639  1  0.88350532  0.11215121  0.96629289  1
  C  C640  1  0.79850940  0.24785100  0.63020586  1
  O  O641  1  0.95082275  0.24902184  0.92682514  1
  H  H642  1  0.76795455  0.03181550  0.93800463  1
  C  C643  1  0.76987030  0.12161146  0.95307851  1
  C  C644  1  0.80770745  0.10477905  0.98737695  1
  C  C645  1  0.91501585  0.00420580  0.82903100  1
  H  H646  1  0.99117492  0.24812251  0.68193500  1
  C  C647  1  0.90991349  0.20020290  0.52616037  1
  H  H648  1  0.90695459  0.49203437  0.73208496  1
  H  H649  1  0.95215082  0.46090267  0.78169112  1
  C  C650  1  0.77507940  0.28505591  0.58843089  1
  C  C651  1  0.89142494  0.30822705  0.56763884  1
  C  C652  1  0.75743414  0.30226821  0.85882918  1
  C  C653  1  0.92453156  0.48004834  0.82913354  1
  H  H654  1  0.79173515  0.45102245  0.74936579  1
  C  C655  1  0.90056431  0.45319866  0.94988640  1
  H  H656  1  0.95096293  0.35075174  0.86308892  1
  C  C657  1  0.77950751  0.26448103  0.91065472  1
  H  H658  1  0.83279226  0.33742829  0.82020685  1
  C  C659  1  0.75251162  0.30861249  0.69905433  1
  C  C660  1  0.97002486  0.37388576  0.80214942  1
  C  C661  1  0.88467334  0.30489829  0.92859177  1
  H  H662  1  0.88180505  0.45645535  0.60105022  1
  H  H663  1  0.88917413  0.42018298  0.90345351  1
  C  C664  1  0.84682812  0.37458806  0.53836242  1
  H  H665  1  0.85522138  0.40472773  0.76945838  1
  C  C666  1  0.80102537  0.42815166  0.65909747  1
  H  H667  1  0.88842569  0.27906520  0.83636438  1
  H  H668  1  0.86510848  0.29204029  0.60387783  1
  H  H669  1  0.95897031  0.38686253  0.69101517  1
  C  C670  1  0.77492949  0.42259846  0.53261026  1
  C  C671  1  0.83605067  0.40442838  0.66393069  1
  C  C672  1  0.85384429  0.33554266  0.91511542  1
  C  C673  1  0.92763550  0.28744450  0.54224187  1
  C  C674  1  0.88872888  0.35387837  0.53193298  1
  C  C675  1  0.96010263  0.31455477  0.50007719  1
  C  C676  1  0.81437857  0.60064235  0.31710121  1
  C  C677  1  0.83007338  0.59330262  0.16635801  1
  O  O678  1  0.84694351  0.67224439  0.32671596  1
  C  C679  1  0.82388293  0.64332362  0.38752669  1
  Cu  Cu680  1  0.90250251  0.67364385  0.35474705  1
  C  C681  1  0.82564225  0.55134512  0.09625866  1
  O  O682  1  0.95841725  0.66893098  0.36933727  1
  C  C683  1  0.78492169  0.52817631  0.31548578  1
  C  C684  1  0.79111177  0.56841995  0.38940258  1
  C  C685  1  0.79988315  0.51799006  0.16237250  1
  H  H686  1  0.84818621  0.61918292  0.10726262  1
  C  C687  1  0.82410293  0.74159263  0.01519394  1
  H  H688  1  0.90554795  0.51954978  0.37204342  1
  H  H689  1  0.76979471  0.50114740  0.38356677  1
  Cu  Cu690  1  0.90147863  0.59299981  0.46222496  1
  H  H691  1  0.85309203  0.52527728  0.44866369  1
  C  C692  1  0.87593754  0.50197477  0.39406550  1
  H  H693  1  0.77383051  0.66611056  0.02481999  1
  H  H694  1  0.96958966  0.73258814  0.26477988  1
  H  H695  1  0.97827180  0.73546923  0.06057877  1
  C  C696  1  0.96908459  0.64359225  0.48521241  1
  C  C697  1  0.77160883  0.79169830  0.10603621  1
  O  O698  1  0.89263430  0.75470273  0.07107749  1
  C  C699  1  0.85722324  0.98572824  0.00547951  1
  C  C700  1  0.82173515  0.95902210  0.02498936  1
  H  H701  1  0.99518411  0.89685016  0.30882809  1
  C  C702  1  0.78421356  0.75283053  0.01964839  1
  H  H703  1  0.76513170  0.95019990  0.40434164  1
  C  C704  1  0.91499062  0.90731031  0.20076775  1
  C  C705  1  0.80293199  0.82101313  0.14696552  1
  C  C706  1  0.85653486  0.85466622  0.37465712  1
  C  C707  1  0.90942824  0.91366818  0.36097633  1
  C  C708  1  0.89409113  0.87358332  0.12324858  1
  H  H709  1  0.80189852  0.96892053  0.11838228  1
  C  C710  1  0.84350982  0.81082537  0.14090833  1
  C  C711  1  0.86875953  0.84611377  0.21695166  1
  C  C712  1  0.93214105  0.78225143  0.14268275  1
  H  H713  1  0.97264550  0.82738735  0.06115916  1
  O  O714  1  0.95541884  0.97198143  0.39589756  1
  C  C715  1  0.92895740  0.95037302  0.44360229  1
  H  H716  1  0.93801567  0.92646042  0.13845255  1
  H  H717  1  0.79594979  0.85434806  0.19275641  1
  O  O718  1  0.83451884  0.97017237  0.37386637  1
  C  C719  1  0.97163119  0.75561466  0.16392533  1
  H  H720  1  0.92504175  0.80051544  0.25420480  1
  H  H721  1  0.93019318  0.80822115  0.04055269  1
  H  H722  1  0.96097315  0.96570925  0.04820601  1
  C  C723  1  0.85666330  0.76916345  0.07434122  1
  H  H724  1  0.99698613  0.77928224  0.18213466  1
  C  C725  1  0.87911267  0.88805108  0.44387098  1
  H  H726  1  0.83294918  0.83469773  0.43589040  1
  C  C727  1  0.75283387  0.98054409  0.46322974  1
  C  C728  1  0.84792809  0.56988570  0.71387007  1
  O  O729  1  0.82438769  0.54040641  0.70132540  1
  C  C730  1  0.84429235  0.61336492  0.79210256  1
  H  H731  1  0.90169651  0.63924941  0.72967297  1
  C  C732  1  0.87494345  0.64463936  0.79577237  1
  O  O733  1  0.88412492  0.56353343  0.65237534  1
  C  C734  1  0.86553180  0.68510910  0.86889970  1
  C  C735  1  0.80826211  0.62016912  0.87886872  1
  H  H736  1  0.78524266  0.59389022  0.88253191  1
  H  H737  1  0.89096425  0.70935904  0.86039218  1
  Cu  Cu738  1  0.81939996  0.70081571  0.63120879  1
  H  H739  1  0.96704423  0.72231181  0.60890603  1
  C  C740  1  0.88951206  0.73898488  0.60098557  1
  O  O741  1  0.89901078  0.70094970  0.54727637  1
  C  C742  1  0.80080830  0.66073170  0.95313043  1
  H  H743  1  0.99226167  0.59545020  0.72988842  1
  H  H744  1  0.93671849  0.51000387  0.88801356  1
  C  C745  1  0.83028730  0.69481830  0.95167668  1
  H  H746  1  0.83727283  0.54538520  0.98122323  1
  O  O747  1  0.95171029  0.60708388  0.51402217  1
  O  O748  1  0.80918074  0.64966124  0.52064408  1
  O  O749  1  0.76496749  0.71198829  0.66175452  1
  H  H750  1  0.76381732  0.73095903  0.95863062  1
  H  H751  1  0.77698036  0.57678414  0.50540729  1
  O  O752  1  0.85302781  0.74974130  0.61640215  1
  C  C753  1  0.99001605  0.78597027  0.70439064  1
  O  O754  1  0.75359807  0.77259691  0.53301239  1
  O  O755  1  0.91639484  0.95709182  0.61126475  1
  H  H756  1  0.87770782  0.82409255  0.69110886  1
  C  C757  1  0.88077951  0.97914869  0.87781723  1
  H  H758  1  0.87445397  0.89751468  0.56407741  1
  C  C759  1  0.92833841  0.99163935  0.68373763  1
  C  C760  1  0.91957758  0.76996844  0.65299288  1
  H  H761  1  0.99724952  0.91212291  0.61112902  1
  C  C762  1  0.90968644  0.81409955  0.70213090  1
  C  C763  1  0.93751089  0.84400202  0.75646573  1
  H  H764  1  0.92834023  0.87868443  0.79656631  1
  C  C765  1  0.81337133  0.92709705  0.91479859  1
  C  C766  1  0.96085644  0.75712923  0.64528361  1
  O  O767  1  0.79726836  0.86882690  0.70536048  1
  H  H768  1  0.97628865  0.99640771  0.86729579  1
  C  C769  1  0.97807168  0.82837723  0.76816382  1
  H  H770  1  0.87207253  0.94740617  0.81263981  1
  C  C771  1  0.80568656  0.89736330  0.80116847  1
  H  H772  1  0.89506296  0.86698153  0.99196290  1
  C  C773  1  0.98642992  0.98595541  0.99003144  1
