# generated using pymatgen
data_CuH15C22O5
_symmetry_space_group_name_H-M   'P 1'
_cell_length_a   29.13214184
_cell_length_b   29.11814754
_cell_length_c   11.42026826
_cell_angle_alpha   90.00000000
_cell_angle_beta   90.00000000
_cell_angle_gamma   90.00000000
_symmetry_Int_Tables_number   1
_chemical_formula_structural   CuH15C22O5
_chemical_formula_sum   'Cu18 H270 C396 O90'
_cell_volume   9687.51668245
_cell_formula_units_Z   18
loop_
 _symmetry_equiv_pos_site_id
 _symmetry_equiv_pos_as_xyz
  1  'x, y, z'
loop_
 _atom_site_type_symbol
 _atom_site_label
 _atom_site_symmetry_multiplicity
 _atom_site_fract_x
 _atom_site_fract_y
 _atom_site_fract_z
 _atom_site_occupancy
  O  O0  1  0.15901086  0.10302822  0.22430903  1
  C  C1  1  0.17123359  0.06389943  0.19919866  1
  O  O2  1  0.06749197  0.18696496  0.21123037  1
  C  C3  1  0.06463638  0.15910166  0.12716599  1
  C  C4  1  0.19883700  0.03674411  0.28422917  1
  C  C5  1  0.21119690  0.06151018  0.38804859  1
  Cu  Cu6  1  0.16202768  0.15798919  0.13298554  1
  O  O7  1  0.16980389  0.04734139  0.09435317  1
  O  O8  1  0.16188419  0.21212295  0.05271867  1
  O  O9  1  0.10131369  0.14826281  0.07589592  1
  O  O10  1  0.20787948  0.16875751  0.39744683  1
  C  C11  1  0.02222780  0.14422120  0.07270923  1
  H  H12  1  0.20281667  0.09876434  0.39563671  1
  C  C13  1  0.22435028  0.20973948  0.37407091  1
  H  H14  1  0.02923416  0.03465126  0.29434877  1
  H  H15  1  0.14210655  0.18676935  0.41889298  1
  H  H16  1  0.13181773  0.09832874  0.44716357  1
  C  C17  1  0.00666497  0.00324832  0.30795848  1
  H  H18  1  0.10972758  0.23266332  0.37515191  1
  C  C19  1  0.16283257  0.16557774  0.48052152  1
  C  C20  1  0.23184096  0.03626098  0.47593614  1
  H  H21  1  0.04645435  0.14427837  0.47647328  1
  H  H22  1  0.02594431  0.04241711  0.45430582  1
  C  C23  1  0.20465508  0.24999030  0.41966160  1
  H  H24  1  0.20291935  0.32592141  0.44383327  1
  H  H25  1  0.04487333  0.27059814  0.48456980  1
  C  C26  1  0.15729287  0.25246115  0.08835521  1
  H  H27  1  0.03365060  0.45524687  0.39837645  1
  C  C28  1  0.14084563  0.46667659  0.48734992  1
  C  C29  1  0.07474108  0.34815228  0.12079514  1
  O  O30  1  0.12947635  0.26013463  0.16961132  1
  Cu  Cu31  1  0.06243587  0.25351596  0.18369545  1
  C  C32  1  0.09869154  0.36101961  0.33005520  1
  O  O33  1  0.07592291  0.35827268  0.01490102  1
  C  C34  1  0.12787651  0.43522830  0.38799436  1
  C  C35  1  0.09643035  0.37649462  0.20958223  1
  H  H36  1  0.24755939  0.43931614  0.10683376  1
  H  H37  1  0.19282179  0.40302520  0.06261203  1
  H  H38  1  0.22462979  0.38174775  0.25318722  1
  C  C39  1  0.12963140  0.44790481  0.26898708  1
  C  C40  1  0.11822773  0.38759639  0.41370665  1
  O  O41  1  0.05317811  0.31276447  0.15309517  1
  C  C42  1  0.20297581  0.36988602  0.03181463  1
  H  H43  1  0.11797715  0.42925756  0.08529101  1
  H  H44  1  0.08899137  0.32666413  0.34624581  1
  C  C45  1  0.11496499  0.25378538  0.45149048  1
  C  C46  1  0.18746868  0.28749455  0.03449537  1
  C  C47  1  0.23918789  0.47038625  0.28220461  1
  C  C48  1  0.17773200  0.33272396  0.07300052  1
  H  H49  1  0.14191920  0.48183553  0.24615561  1
  C  C50  1  0.16182660  0.25516007  0.49397418  1
  C  C51  1  0.22040213  0.29497762  0.40568398  1
  C  C52  1  0.23075475  0.46670642  0.15917305  1
  C  C53  1  0.11583368  0.41834426  0.17818648  1
  H  H54  1  0.14980001  0.33956780  0.13831189  1
  C  C55  1  0.02370963  0.43848700  0.47786753  1
  H  H56  1  0.04564977  0.40606286  0.48793436  1
  C  C57  1  0.03959340  0.20878448  0.72380406  1
  H  H58  1  0.09873953  0.18987514  0.62160882  1
  C  C59  1  0.06098650  0.18846845  0.62601271  1
  C  C60  1  0.05465961  0.07124872  0.74297553  1
  H  H61  1  0.05359432  0.10610791  0.70873158  1
  O  O62  1  0.20972803  0.18308663  0.80933378  1
  O  O63  1  0.12715180  0.13144609  0.76768752  1
  C  C64  1  0.13185670  0.08927460  0.80589502  1
  C  C65  1  0.09425389  0.05765852  0.80654515  1
  Cu  Cu66  1  0.14808285  0.18490916  0.84150169  1
  O  O67  1  0.17079591  0.07602909  0.84096333  1
  C  C68  1  0.03213818  0.16158489  0.55411716  1
  C  C69  1  0.24060925  0.15235698  0.82125509  1
  H  H70  1  0.05664188  0.11357105  0.92277809  1
  O  O71  1  0.11233997  0.23337487  0.78984904  1
  C  C72  1  0.07040347  0.23288118  0.80465510  1
  C  C73  1  0.02345722  0.12361503  0.95836529  1
  H  H74  1  0.17387290  0.18652408  0.55644764  1
  C  C75  1  0.01839606  0.04105610  0.72665882  1
  H  H76  1  0.17189938  0.01574303  0.59580196  1
  H  H77  1  0.16375357  0.10484563  0.58517507  1
  C  C78  1  0.10052750  0.01464263  0.85991563  1
  H  H79  1  0.10541690  0.13197164  0.57646005  1
  O  O80  1  0.24123877  0.13161198  0.91974169  1
  H  H81  1  0.23962161  0.05381286  0.56199938  1
  H  H82  1  0.24974260  0.19177201  0.61180732  1
  C  C83  1  0.13824635  0.12179311  0.52419803  1
  H  H84  1  0.13343385  0.00411133  0.90335524  1
  Cu  Cu85  1  0.20165212  0.08656542  0.98966323  1
  H  H86  1  0.23427404  0.24789071  0.92584501  1
  O  O87  1  0.01913994  0.07026485  0.50288003  1
  C  C88  1  0.22292333  0.46765788  0.74617073  1
  O  O89  1  0.05804252  0.49093427  0.88137522  1
  H  H90  1  0.02996338  0.45843721  0.56320389  1
  C  C91  1  0.22323622  0.42334659  0.80059408  1
  C  C92  1  0.23820438  0.36600987  0.94457522  1
  H  H93  1  0.02334529  0.41299335  0.92486268  1
  C  C94  1  0.22350553  0.28280533  0.95059886  1
  O  O95  1  0.06975443  0.35219118  0.76807994  1
  O  O96  1  0.05316667  0.25630666  0.88813413  1
  H  H97  1  0.14812859  0.32883562  0.71823465  1
  C  C98  1  0.05782737  0.33059804  0.67169310  1
  O  O99  1  0.01907894  0.33252815  0.64137212  1
  Cu  Cu100  1  0.06919319  0.31690284  0.90270216  1
  H  H101  1  0.19637373  0.39968486  0.78078919  1
  H  H102  1  0.20779329  0.27807119  0.64005419  1
  C  C103  1  0.17379164  0.27810131  0.60337596  1
  C  C104  1  0.18738540  0.48118358  0.65572758  1
  H  H105  1  0.18767581  0.41588658  0.55137008  1
  C  C106  1  0.02128364  0.49794567  0.81544767  1
  C  C107  1  0.17387901  0.45027382  0.56300007  1
  C  C108  1  0.09369594  0.30263965  0.61072853  1
  C  C109  1  0.24683785  0.31939233  0.90122951  1
  H  H110  1  0.12295351  0.37316294  0.50381072  1
  C  C111  1  0.13937870  0.30608910  0.64970677  1
  C  C112  1  0.08028117  0.27584078  0.51422672  1
  H  H113  1  0.20899516  0.72429743  0.30091913  1
  H  H114  1  0.17493251  0.56770040  0.35192469  1
  O  O115  1  0.12736938  0.59406009  0.14930401  1
  C  C116  1  0.23936562  0.72771146  0.35622872  1
  C  C117  1  0.15344482  0.56673652  0.11339306  1
  C  C118  1  0.19089223  0.53803302  0.29971446  1
  C  C119  1  0.18442113  0.53478839  0.17894032  1
  C  C120  1  0.01295915  0.56616462  0.34812945  1
  O  O121  1  0.08338783  0.51820307  0.41708737  1
  H  H122  1  0.02676583  0.57589640  0.25875463  1
  H  H123  1  0.07758996  0.58745153  0.42433897  1
  C  C124  1  0.05341975  0.55934697  0.43330692  1
  H  H125  1  0.22934180  0.50782757  0.44452696  1
  C  C126  1  0.21960235  0.50570824  0.35272151  1
  H  H127  1  0.01151657  0.72559226  0.44495101  1
  H  H128  1  0.06275878  0.65303404  0.43605093  1
  H  H129  1  0.09597502  0.70412023  0.44060993  1
  C  C130  1  0.07251520  0.68261733  0.49328507  1
  C  C131  1  0.20621191  0.50208025  0.10429226  1
  C  C132  1  0.11588627  0.50914403  0.49658525  1
  H  H133  1  0.20177272  0.50186104  0.00926024  1
  C  C134  1  0.23625146  0.75545193  0.45634145  1
  O  O135  1  0.22704633  0.85653576  0.28515518  1
  O  O136  1  0.12561572  0.88523739  0.44673337  1
  C  C137  1  0.01841720  0.95935566  0.27166862  1
  C  C138  1  0.19196598  0.77778936  0.48374283  1
  C  C139  1  0.21229979  0.99053304  0.27505131  1
  C  C140  1  0.24199686  0.98767442  0.47207699  1
  C  C141  1  0.23553940  0.96586477  0.36157045  1
  Cu  Cu142  1  0.13480879  0.79929759  0.28935106  1
  H  H143  1  0.20155698  0.96993410  0.19887011  1
  C  C144  1  0.07445306  0.90612755  0.18971391  1
  O  O145  1  0.15904992  0.76708725  0.41595158  1
  O  O146  1  0.10842283  0.82801851  0.15884166  1
  C  C147  1  0.21550981  0.83912657  0.18921296  1
  H  H148  1  0.05446909  0.86240961  0.35620018  1
  H  H149  1  0.07796850  0.98220257  0.16870826  1
  C  C150  1  0.03871126  0.84528492  0.43485483  1
  C  C151  1  0.05826449  0.95153196  0.20388346  1
  H  H152  1  0.24771190  0.93119114  0.35242995  1
  C  C153  1  0.09263214  0.86852100  0.17956640  1
  O  O154  1  0.19256035  0.80128029  0.18937122  1
  Cu  Cu155  1  0.17728858  0.86915044  0.37576329  1
  C  C156  1  0.22505710  0.86111532  0.07645398  1
  C  C157  1  0.00283884  0.81375237  0.42658880  1
  H  H158  1  0.09591211  0.97547237  0.49249183  1
  H  H159  1  0.17925370  0.55008501  0.73553523  1
  H  H160  1  0.06061853  0.57228977  0.71471198  1
  H  H161  1  0.05775409  0.65019052  0.79880977  1
  C  C162  1  0.08795288  0.59848726  0.68660882  1
  C  C163  1  0.08524187  0.64271681  0.73585379  1
  C  C164  1  0.12473796  0.58573885  0.61093372  1
  C  C165  1  0.11985612  0.67386541  0.71499795  1
  C  C166  1  0.13622354  0.53567741  0.58505514  1
  C  C167  1  0.15410810  0.66486925  0.63267293  1
  C  C168  1  0.15508739  0.62246927  0.57928393  1
  H  H169  1  0.18131853  0.68960109  0.62222641  1
  C  C170  1  0.17041541  0.52614219  0.66925876  1
  O  O171  1  0.01533081  0.53074991  0.75617793  1
  C  C172  1  0.11531583  0.71785919  0.78385741  1
  H  H173  1  0.18144448  0.61380061  0.50884476  1
  O  O174  1  0.09022803  0.72166999  0.86383163  1
  C  C175  1  0.03059685  0.71313056  0.52693318  1
  Cu  Cu176  1  0.10339904  0.52825988  0.92993901  1
  H  H177  1  0.04082331  0.56141631  0.52673967  1
  H  H178  1  0.04199365  0.74164365  0.58471719  1
  H  H179  1  0.08987060  0.67172212  0.57325948  1
  O  O180  1  0.15046999  0.55673123  0.99865218  1
  H  H181  1  0.08726341  0.99751145  0.64172011  1
  C  C182  1  0.02507327  0.99755031  0.78146852  1
  C  C183  1  0.00442017  0.80707554  0.64525667  1
  O  O184  1  0.14176821  0.75096042  0.74201107  1
  H  H185  1  0.18199350  0.81760104  0.96660599  1
  C  C186  1  0.20657995  0.84661323  0.96828223  1
  H  H187  1  0.06273253  0.83790198  0.73090413  1
  Cu  Cu188  1  0.13927128  0.80962140  0.68195756  1
  H  H189  1  0.06646208  0.95126937  0.88289963  1
  C  C190  1  0.10779798  0.87261461  0.54351808  1
  C  C191  1  0.10698109  0.97433687  0.58592094  1
  C  C192  1  0.24702270  0.90964750  0.87839408  1
  H  H193  1  0.17540398  0.96040867  0.52114485  1
  H  H194  1  0.20324902  0.86357783  0.77818753  1
  O  O195  1  0.13231183  0.86770194  0.63364696  1
  O  O196  1  0.18871087  0.95769543  0.69500751  1
  C  C197  1  0.06163442  0.85258241  0.54488160  1
  H  H198  1  0.02536515  0.95769664  0.60291183  1
  C  C199  1  0.06419880  0.98531043  0.84871772  1
  C  C200  1  0.23397690  0.95435939  0.68274602  1
  O  O201  1  0.18657900  0.79984067  0.57673122  1
  C  C202  1  0.15940964  0.97908174  0.59553558  1
  H  H203  1  0.09756529  0.93957805  0.61761353  1
  C  C204  1  0.04410458  0.83395366  0.64897468  1
  C  C205  1  0.21686691  0.87220596  0.86839152  1
  C  C206  1  0.30140340  0.10420015  0.16214851  1
  C  C207  1  0.28128718  0.18747353  0.21471664  1
  C  C208  1  0.28352008  0.13916876  0.23003661  1
  H  H209  1  0.30172653  0.06995615  0.19908481  1
  H  H210  1  0.45582082  0.05712616  0.11493487  1
  C  C211  1  0.29695593  0.21042999  0.11555288  1
  C  C212  1  0.42694383  0.08731000  0.32738461  1
  C  C213  1  0.40430784  0.10913126  0.42721439  1
  C  C214  1  0.47155559  0.09607314  0.27926516  1
  C  C215  1  0.40595261  0.05001218  0.25839624  1
  C  C216  1  0.36556028  0.03807399  0.30807221  1
  H  H217  1  0.42148874  0.03121759  0.17806348  1
  C  C218  1  0.48056717  0.08068727  0.16152431  1
  C  C219  1  0.33007115  0.11088231  0.06210887  1
  C  C220  1  0.33838862  0.05281503  0.39685963  1
  H  H221  1  0.30386924  0.03877201  0.41563384  1
  C  C222  1  0.36099210  0.09113171  0.45698561  1
  O  O223  1  0.34547887  0.02967051  0.04127575  1
  O  O224  1  0.31934087  0.19978702  0.02685078  1
  H  H225  1  0.30451699  0.16177887  0.45258070  1
  H  H226  1  0.26577561  0.12843708  0.31041066  1
  C  C227  1  0.26230314  0.22261891  0.30047315  1
  C  C228  1  0.34935017  0.07175928  0.01453050  1
  H  H229  1  0.49843694  0.13844447  0.42548132  1
  O  O230  1  0.42471617  0.14356097  0.48432412  1
  H  H231  1  0.28879099  0.24896477  0.11127023  1
  H  H232  1  0.33072504  0.33362400  0.49580349  1
  C  C233  1  0.32029511  0.40641666  0.48105361  1
  H  H234  1  0.41932823  0.42240393  0.48853167  1
  H  H235  1  0.38782362  0.37986644  0.15133610  1
  H  H236  1  0.28173271  0.37893135  0.11376776  1
  C  C237  1  0.25349155  0.39018328  0.31514487  1
  H  H238  1  0.35158445  0.41471783  0.24534634  1
  C  C239  1  0.31734263  0.36159748  0.44058594  1
  O  O240  1  0.31840500  0.43628342  0.01823656  1
  H  H241  1  0.34462814  0.35084934  0.23777261  1
  C  C242  1  0.35213646  0.38319676  0.18802193  1
  C  C243  1  0.27985847  0.35462827  0.36088789  1
  H  H244  1  0.33088627  0.36519539  0.01196369  1
  C  C245  1  0.28446807  0.26609615  0.30355013  1
  C  C246  1  0.29926571  0.44792643  0.43752820  1
  C  C247  1  0.31800099  0.38791299  0.08517107  1
  H  H248  1  0.31632146  0.27370034  0.25401316  1
  C  C249  1  0.26378949  0.30316383  0.35438663  1
  C  C250  1  0.26601837  0.43523305  0.35225551  1
  O  O251  1  0.30498705  0.49133851  0.46733081  1
  H  H252  1  0.48567820  0.49865042  0.38958295  1
  C  C253  1  0.33008535  0.08286892  0.66641281  1
  C  C254  1  0.30175305  0.09972561  0.75136634  1
  H  H255  1  0.30341397  0.08513293  0.83965697  1
  H  H256  1  0.35147998  0.05312828  0.68024350  1
  H  H257  1  0.39090870  0.14368821  0.64576930  1
  C  C258  1  0.32877395  0.10559180  0.55404336  1
  C  C259  1  0.27301912  0.16270351  0.62248957  1
  O  O260  1  0.36693666  0.15286463  0.91801583  1
  C  C261  1  0.40453365  0.16912183  0.58323267  1
  C  C262  1  0.43311386  0.20367235  0.65854197  1
  H  H263  1  0.36970956  0.07580819  0.92952525  1
  C  C264  1  0.27214190  0.13795748  0.73106873  1
  H  H265  1  0.46177803  0.18632405  0.70748109  1
  H  H266  1  0.44770934  0.23205157  0.60551959  1
  C  C267  1  0.30280007  0.14625953  0.53917318  1
  H  H268  1  0.41057524  0.22019644  0.72359990  1
  H  H269  1  0.37296860  0.18218586  0.52851746  1
  C  C270  1  0.34192002  0.15318025  0.99820030  1
  H  H271  1  0.49960818  0.37578788  0.71748354  1
  C  C272  1  0.25153328  0.41207444  0.89226001  1
  O  O273  1  0.43180308  0.39816332  0.98134251  1
  C  C274  1  0.28414079  0.48480286  0.87880100  1
  O  O275  1  0.48820017  0.42277457  0.87080744  1
  C  C276  1  0.41509734  0.40772276  0.77675319  1
  C  C277  1  0.36863301  0.39640516  0.79054115  1
  H  H278  1  0.35523587  0.39445018  0.87983678  1
  C  C279  1  0.43446865  0.42238690  0.66916840  1
  H  H280  1  0.31459291  0.47265985  0.63938092  1
  H  H281  1  0.30232930  0.38922024  0.70412666  1
  H  H282  1  0.37680193  0.47073538  0.90382408  1
  C  C283  1  0.44399815  0.40992809  0.88600438  1
  C  C284  1  0.28600339  0.44261156  0.93827446  1
  C  C285  1  0.35669733  0.40649164  0.57981277  1
  H  H286  1  0.47081142  0.43283201  0.66204381  1
  C  C287  1  0.33917027  0.39576657  0.69350658  1
  H  H288  1  0.36428047  0.48663068  0.55175326  1
  C  C289  1  0.40442730  0.41952494  0.57507734  1
  H  H290  1  0.27417245  0.31291239  0.83316411  1
  C  C291  1  0.32919210  0.49856262  0.57536985  1
  C  C292  1  0.36700981  0.69774378  0.35722989  1
  C  C293  1  0.37434627  0.65078298  0.32014694  1
  O  O294  1  0.34240746  0.62035512  0.31233858  1
  C  C295  1  0.35791473  0.57104360  0.26532465  1
  H  H296  1  0.38182143  0.58448966  0.19736647  1
  H  H297  1  0.38089772  0.56246155  0.33941862  1
  C  C298  1  0.45414557  0.68370870  0.29192732  1
  C  C299  1  0.42336474  0.64693950  0.30523479  1
  C  C300  1  0.44625483  0.60136392  0.28341860  1
  C  C301  1  0.46631477  0.59919552  0.16801491  1
  C  C302  1  0.32447259  0.53356226  0.22101356  1
  C  C303  1  0.45510773  0.56664429  0.36922903  1
  H  H304  1  0.44964750  0.57508729  0.46350597  1
  C  C305  1  0.31767266  0.71035941  0.39686559  1
  H  H306  1  0.27840834  0.68036203  0.25160612  1
  C  C307  1  0.43717750  0.72934013  0.30134229  1
  C  C308  1  0.47530533  0.52632525  0.32973768  1
  C  C309  1  0.27834869  0.70348677  0.32958038  1
  H  H310  1  0.46271772  0.62595500  0.10911395  1
  H  H311  1  0.48991988  0.67866065  0.27392267  1
  C  C312  1  0.39173988  0.73646803  0.34184372  1
  H  H313  1  0.29930911  0.54564350  0.14870581  1
  C  C314  1  0.48407665  0.55762121  0.12635145  1
  C  C315  1  0.48802975  0.52299892  0.21030843  1
  H  H316  1  0.30288820  0.51708783  0.29346459  1
  H  H317  1  0.34786836  0.50697665  0.17675892  1
  H  H318  1  0.49679563  0.55322081  0.03529609  1
  H  H319  1  0.45357593  0.69571017  0.49632586  1
  H  H320  1  0.45926717  0.99148686  0.35511860  1
  C  C321  1  0.47359949  0.84733437  0.18787662  1
  C  C322  1  0.44406956  0.88477307  0.13171191  1
  C  C323  1  0.39443067  0.95464521  0.02466474  1
  C  C324  1  0.34854639  0.84124271  0.43632515  1
  C  C325  1  0.25800169  0.89836546  0.08201168  1
  H  H326  1  0.32347110  0.96776635  0.48017653  1
  H  H327  1  0.27600284  0.90550416  0.16694983  1
  C  C328  1  0.41967263  0.91608823  0.20554233  1
  C  C329  1  0.48895454  0.97130009  0.37319751  1
  H  H330  1  0.34225093  0.84669951  0.25037651  1
  C  C331  1  0.48470727  0.92663781  0.43179725  1
  C  C332  1  0.44327618  0.81381685  0.22600577  1
  C  C333  1  0.39362808  0.94939745  0.14777924  1
  C  C334  1  0.44359319  0.88641951  0.00570658  1
  H  H335  1  0.29092913  0.82096092  0.32752715  1
  H  H336  1  0.42191259  0.91468121  0.30231228  1
  H  H337  1  0.37588516  0.97620414  0.19767655  1
  H  H338  1  0.37650667  0.76991931  0.36073548  1
  C  C339  1  0.32508074  0.83830450  0.33959006  1
  H  H340  1  0.38183857  0.86059741  0.44155105  1
  H  H341  1  0.40637075  0.81716612  0.21677186  1
  C  C342  1  0.46306010  0.77320827  0.26989509  1
  H  H343  1  0.45722120  0.77935684  0.47396644  1
  C  C344  1  0.38209977  0.58840951  0.93473104  1
  C  C345  1  0.42226889  0.62117660  0.94220384  1
  O  O346  1  0.46401662  0.60554341  0.90940712  1
  C  C347  1  0.39925331  0.54305575  0.92632984  1
  C  C348  1  0.33300362  0.54632991  0.63249701  1
  H  H349  1  0.36364308  0.71185604  0.80676495  1
  C  C350  1  0.38702878  0.72585299  0.73956881  1
  H  H351  1  0.36033918  0.57115448  0.59327675  1
  C  C352  1  0.33544252  0.60109805  0.94108069  1
  O  O353  1  0.37197121  0.63485214  0.71310118  1
  C  C354  1  0.40998597  0.70071803  0.65083242  1
  H  H355  1  0.34124063  0.54340973  0.72731895  1
  H  H356  1  0.29790765  0.56432553  0.63548244  1
  C  C357  1  0.40344448  0.64978432  0.65696687  1
  O  O358  1  0.41814142  0.66038537  0.96800451  1
  H  H359  1  0.43784516  0.53760588  0.91749686  1
  O  O360  1  0.43368711  0.62250794  0.60918095  1
  C  C361  1  0.43884088  0.71854739  0.56328860  1
  C  C362  1  0.30277616  0.56713287  0.93275951  1
  H  H363  1  0.32522614  0.63670894  0.95485745  1
  H  H364  1  0.26552340  0.57421983  0.93733489  1
  H  H365  1  0.26304360  0.53322869  0.75298041  1
  C  C366  1  0.32020744  0.52162512  0.91210505  1
  H  H367  1  0.34942390  0.73934087  0.55800195  1
  Cu  Cu368  1  0.49394542  0.63655451  0.58915463  1
  C  C369  1  0.36716838  0.50799259  0.91496317  1
  C  C370  1  0.25684286  0.50010393  0.78750019  1
  C  C371  1  0.31704797  0.73778321  0.50178359  1
  H  H372  1  0.33291460  0.82573600  0.52015909  1
  C  C373  1  0.27612668  0.76026299  0.52577695  1
  H  H374  1  0.36005890  0.85624699  0.73492650  1
  C  C375  1  0.26240472  0.93021949  0.76250165  1
  C  C376  1  0.42089208  0.79138888  0.64355831  1
  H  H377  1  0.40669066  0.96781214  0.51175647  1
  H  H378  1  0.27189340  0.78449851  0.60298437  1
  C  C379  1  0.44244191  0.76615634  0.55373191  1
  C  C380  1  0.41133343  0.93381556  0.54340938  1
  H  H381  1  0.46196958  0.86216469  0.95018227  1
  H  H382  1  0.37267448  0.79600557  0.79625030  1
  C  C383  1  0.41666803  0.92045793  0.95583170  1
  C  C384  1  0.30694512  0.95785042  0.56047496  1
  C  C385  1  0.45903187  0.86443457  0.56154101  1
  C  C386  1  0.37872896  0.91431651  0.62307766  1
  C  C387  1  0.38789193  0.87111602  0.68166962  1
  H  H388  1  0.41651294  0.92478636  0.86234351  1
  C  C389  1  0.31016024  0.92376338  0.75575911  1
  H  H390  1  0.33032740  0.90448414  0.81763276  1
  C  C391  1  0.33281714  0.93599351  0.64938737  1
  C  C392  1  0.39096761  0.77268890  0.73262761  1
  C  C393  1  0.26054268  0.96673236  0.58338095  1
  C  C394  1  0.42517142  0.84448751  0.63708192  1
  C  C395  1  0.44920853  0.90811882  0.51029520  1
  C  C396  1  0.37116394  0.99246480  0.96546554  1
  O  O397  1  0.36885882  0.99844557  0.86371809  1
  C  C398  1  0.26923422  0.92315397  0.98568664  1
  H  H399  1  0.29679475  0.94959765  0.97811853  1
  O  O400  1  0.49933085  0.85235388  0.50671490  1
  O  O401  1  0.63081562  0.15463349  0.17072880  1
  C  C402  1  0.59789384  0.13843629  0.10525076  1
  C  C403  1  0.54350942  0.14045331  0.27612424  1
  Cu  Cu404  1  0.67730075  0.12308952  0.23611833  1
  C  C405  1  0.55210860  0.12517807  0.15980519  1
  H  H406  1  0.56712816  0.16706557  0.31721007  1
  O  O407  1  0.72706020  0.09116272  0.29406785  1
  H  H408  1  0.52448918  0.02620711  0.30332136  1
  H  H409  1  0.66090556  0.21302507  0.31164133  1
  C  C410  1  0.66636360  0.22336026  0.40740878  1
  H  H411  1  0.71724189  0.11846444  0.06129614  1
  O  O412  1  0.64247593  0.12669906  0.38386873  1
  O  O413  1  0.71611928  0.03324912  0.41750260  1
  C  C414  1  0.73157295  0.07366804  0.39502193  1
  C  C415  1  0.52097664  0.09499042  0.10686884  1
  C  C416  1  0.50496400  0.12628653  0.33644098  1
  H  H417  1  0.73379743  0.24389887  0.18659369  1
  C  C418  1  0.73602481  0.24359404  0.09093558  1
  C  C419  1  0.65485681  0.14286208  0.48269821  1
  H  H420  1  0.53270712  0.07963751  0.02290007  1
  O  O421  1  0.60440208  0.13095522  0.00227110  1
  C  C422  1  0.74075774  0.09534011  0.01890767  1
  H  H423  1  0.67202081  0.22736407  0.02057721  1
  C  C424  1  0.69226097  0.25948910  0.03084345  1
  C  C425  1  0.74102067  0.35993368  0.01730366  1
  O  O426  1  0.52370617  0.47929580  0.06357620  1
  O  O427  1  0.51693075  0.44841560  0.24228067  1
  H  H428  1  0.67815945  0.28998102  0.07636093  1
  C  C429  1  0.51081688  0.47956602  0.17783908  1
  O  O430  1  0.61164124  0.38535002  0.11077151  1
  C  C431  1  0.67762962  0.26856977  0.42373428  1
  H  H432  1  0.68441904  0.37365059  0.14068624  1
  H  H433  1  0.60487549  0.45655596  0.42222334  1
  H  H434  1  0.67770671  0.29143069  0.34250502  1
  C  C435  1  0.69491176  0.36423274  0.04929578  1
  C  C436  1  0.61350874  0.37556769  0.00791227  1
  C  C437  1  0.67287581  0.20823992  0.61647584  1
  H  H438  1  0.66833157  0.18278502  0.68817933  1
  Cu  Cu439  1  0.63125320  0.06246057  0.56588609  1
  O  O440  1  0.65843058  0.11859007  0.57325217  1
  C  C441  1  0.71961518  0.05997091  0.95490807  1
  H  H442  1  0.73430266  0.05573400  0.62167149  1
  O  O443  1  0.60615426  0.00309160  0.54666248  1
  H  H444  1  0.68223191  0.05867748  0.94745036  1
  C  C445  1  0.66472305  0.19125645  0.50134438  1
  C  C446  1  0.74535469  0.48046631  0.82004912  1
  C  C447  1  0.74835554  0.39724665  0.54567153  1
  C  C448  1  0.73630000  0.35116650  0.54666943  1
  C  C449  1  0.60408093  0.46820769  0.51277918  1
  H  H450  1  0.70754070  0.47988735  0.82371883  1
  C  C451  1  0.68259651  0.25424798  0.63095477  1
  H  H452  1  0.69555770  0.27184412  0.93752045  1
  C  C453  1  0.68555963  0.28689610  0.53763345  1
  O  O454  1  0.57902027  0.38403164  0.94055913  1
  H  H455  1  0.68713303  0.26423251  0.72328265  1
  C  C456  1  0.68964397  0.33873729  0.55964015  1
  H  H457  1  0.64383546  0.44048975  0.79952064  1
  H  H458  1  0.71585831  0.46613363  0.55466609  1
  C  C459  1  0.66019198  0.35941482  0.96450155  1
  C  C460  1  0.62576402  0.46228352  0.72656135  1
  C  C461  1  0.71354665  0.33424258  0.81847391  1
  C  C462  1  0.71208632  0.42854265  0.55524396  1
  C  C463  1  0.66852485  0.41289241  0.58129347  1
  C  C464  1  0.65087509  0.36536872  0.58021758  1
  O  O465  1  0.61103760  0.34483470  0.59234742  1
  H  H466  1  0.54054756  0.33639273  0.77663395  1
  H  H467  1  0.51539473  0.32580745  0.63157134  1
  C  C468  1  0.63224585  0.44976736  0.60422367  1
  C  C469  1  0.52858567  0.35225134  0.68898921  1
  C  C470  1  0.66821541  0.34374645  0.84920664  1
  H  H471  1  0.59019891  0.39843866  0.69047829  1
  H  H472  1  0.63859303  0.34097657  0.78685889  1
  H  H473  1  0.56113967  0.39646452  0.55324311  1
  H  H474  1  0.72124636  0.32560394  0.72380951  1
  C  C475  1  0.57107950  0.37510945  0.63182114  1
  Cu  Cu476  1  0.53520965  0.42823339  0.96154359  1
  C  C477  1  0.59634237  0.49643657  0.75058949  1
  O  O478  1  0.73993537  0.70856683  0.22849309  1
  H  H479  1  0.65985577  0.69877342  0.18124335  1
  O  O480  1  0.62749191  0.64884031  0.06539893  1
  H  H481  1  0.52819296  0.73959324  0.29723534  1
  H  H482  1  0.57346842  0.72724568  0.15736916  1
  H  H483  1  0.61508530  0.68688294  0.46737320  1
  H  H484  1  0.55821182  0.52347855  0.47108859  1
  C  C485  1  0.64736621  0.73279606  0.21052789  1
  C  C486  1  0.60114225  0.66087690  0.00917504  1
  H  H487  1  0.68263104  0.74010008  0.43652964  1
  C  C488  1  0.72856070  0.74379404  0.28275005  1
  C  C489  1  0.60232376  0.74904635  0.19286250  1
  H  H490  1  0.57058468  0.92864001  0.36080917  1
  H  H491  1  0.59475483  0.94369065  0.01424694  1
  H  H492  1  0.54349274  0.88240557  0.39060506  1
  C  C493  1  0.51136555  0.88653486  0.44035802  1
  C  C494  1  0.62207620  0.98585723  0.33144011  1
  C  C495  1  0.52261155  0.84903312  0.18759861  1
  C  C496  1  0.53333653  0.92779600  0.11713714  1
  C  C497  1  0.51147793  0.77012299  0.26687701  1
  O  O498  1  0.55103688  0.88033459  0.15040300  1
  C  C499  1  0.62551873  0.82301459  0.28899026  1
  C  C500  1  0.67987558  0.75996655  0.27052777  1
  C  C501  1  0.54035005  0.80579015  0.23214839  1
  H  H502  1  0.61481566  0.85544967  0.32494789  1
  H  H503  1  0.59053591  0.97510508  0.14771287  1
  H  H504  1  0.55317928  0.99236467  0.01870080  1
  C  C505  1  0.57411445  0.96766074  0.35548270  1
  C  C506  1  0.66887335  0.80595992  0.30575810  1
  C  C507  1  0.56955619  0.96236938  0.07275764  1
  Cu  Cu508  1  0.72029227  0.98905680  0.30780209  1
  H  H509  1  0.69420865  0.82654865  0.35802937  1
  C  C510  1  0.59068800  0.79479785  0.23097044  1
  O  O511  1  0.73027860  0.94829347  0.17140620  1
  H  H512  1  0.51589983  0.93902264  0.19587578  1
  H  H513  1  0.50498077  0.92652306  0.05570746  1
  C  C514  1  0.52750095  0.98959752  0.33678463  1
  O  O515  1  0.65448369  0.98856947  0.26477630  1
  C  C516  1  0.60321151  0.98926798  0.44588018  1
  H  H517  1  0.72766791  0.97666688  0.01954933  1
  C  C518  1  0.57299226  0.67670228  0.67779971  1
  C  C519  1  0.54156312  0.55638302  0.68363331  1
  C  C520  1  0.61502919  0.70429906  0.65611971  1
  O  O521  1  0.55783543  0.67282353  0.77944552  1
  O  O522  1  0.55305884  0.65857671  0.59294829  1
  O  O523  1  0.54017891  0.57151134  0.78928987  1
  H  H524  1  0.63263559  0.71032228  0.84404164  1
  C  C525  1  0.64118213  0.71910472  0.75118506  1
  C  C526  1  0.57216467  0.51994759  0.65869185  1
  Cu  Cu527  1  0.51065315  0.63144993  0.81835361  1
  C  C528  1  0.63077278  0.70670304  0.54127178  1
  O  O529  1  0.51620813  0.57325391  0.60518163  1
  H  H530  1  0.59279248  0.50758835  0.84326472  1
  C  C531  1  0.66938554  0.73424072  0.52383219  1
  C  C532  1  0.68135444  0.74315768  0.73456819  1
  C  C533  1  0.57643458  0.50484029  0.54091652  1
  H  H534  1  0.72351906  0.92325966  0.71519700  1
  C  C535  1  0.73309512  0.99990225  0.80452772  1
  H  H536  1  0.63261839  0.81231967  0.54879912  1
  H  H537  1  0.59458125  0.89280403  0.70124677  1
  C  C538  1  0.63937940  0.83807097  0.61810873  1
  H  H539  1  0.59672213  0.88709076  0.54072215  1
  O  O540  1  0.69385915  0.99235966  0.79891160  1
  C  C541  1  0.72229624  0.83745040  0.60211552  1
  O  O542  1  0.68536813  0.86253098  0.61007505  1
  H  H543  1  0.56417279  0.84640555  0.63332198  1
  H  H544  1  0.70291514  0.75455642  0.80840667  1
  C  C545  1  0.69168699  0.75741347  0.61901076  1
  C  C546  1  0.73340083  0.78872621  0.60053106  1
  H  H547  1  0.64648302  0.81615141  0.69616905  1
  C  C548  1  0.59584063  0.86846444  0.63077120  1
  C  C549  1  0.90842904  0.07785907  0.34058624  1
  C  C550  1  0.89774057  0.12531430  0.36034438  1
  C  C551  1  0.84920205  0.19200532  0.28421509  1
  C  C552  1  0.85833285  0.14479876  0.28812975  1
  C  C553  1  0.81334478  0.20456018  0.21088631  1
  C  C554  1  0.83534599  0.11451839  0.20694312  1
  H  H555  1  0.84153313  0.07745716  0.19976546  1
  C  C556  1  0.80602810  0.13348001  0.12570202  1
  H  H557  1  0.88422851  0.05619728  0.28881938  1
  C  C558  1  0.78562849  0.17825373  0.13231439  1
  H  H559  1  0.90645442  0.16221340  0.11506503  1
  C  C560  1  0.93864521  0.15002315  0.06996664  1
  C  C561  1  0.92031528  0.14811825  0.45423253  1
  C  C562  1  0.94854313  0.05844424  0.38167514  1
  H  H563  1  0.86665379  0.21949742  0.33281799  1
  H  H564  1  0.98157258  0.16622720  0.21642653  1
  C  C565  1  0.94803266  0.04416129  0.08358241  1
  C  C566  1  0.98024356  0.15692604  0.12429934  1
  H  H567  1  0.78140616  0.14759140  0.34611144  1
  C  C568  1  0.78196339  0.13934471  0.44067664  1
  H  H569  1  0.91973225  0.07146347  0.07450757  1
  H  H570  1  0.93826727  0.01973530  0.15592178  1
  H  H571  1  0.91173233  0.18066802  0.48626894  1
  C  C572  1  0.97802149  0.08369477  0.45941163  1
  H  H573  1  0.97642034  0.06559548  0.11779596  1
  C  C574  1  0.78988889  0.09966439  0.03306697  1
  C  C575  1  0.75736805  0.10072165  0.47777705  1
  O  O576  1  0.99222723  0.21790424  0.38996660  1
  C  C577  1  0.96050090  0.00823539  0.35360685  1
  O  O578  1  0.75235013  0.19345820  0.06553617  1
  H  H579  1  0.84296586  0.24630421  0.04696069  1
  O  O580  1  0.99850594  0.24749391  0.21770801  1
  C  C581  1  0.98276776  0.24945552  0.32741629  1
  C  C582  1  0.96023934  0.12733797  0.49814834  1
  H  H583  1  0.85735301  0.00312674  0.16043508  1
  H  H584  1  0.83769864  0.18397413  0.49679176  1
  C  C585  1  0.89009534  0.44208938  0.47667389  1
  C  C586  1  0.83481361  0.27072977  0.11779139  1
  H  H587  1  0.84604174  0.49200103  0.31521757  1
  C  C588  1  0.90494222  0.35384546  0.46137023  1
  H  H589  1  0.78787922  0.36331948  0.34929059  1
  Cu  Cu590  1  0.87703648  0.45871872  0.02104278  1
  H  H591  1  0.89321867  0.38026140  0.28054509  1
  C  C592  1  0.90911511  0.35389517  0.33761389  1
  C  C593  1  0.87508011  0.39544881  0.49170846  1
  H  H594  1  0.76669603  0.26403258  0.06984808  1
  C  C595  1  0.80075923  0.33490592  0.29567636  1
  C  C596  1  0.79201575  0.28800961  0.30851510  1
  H  H597  1  0.86196376  0.33282085  0.02936884  1
  H  H598  1  0.76832567  0.27694129  0.37916636  1
  C  C599  1  0.95557902  0.28693953  0.38096872  1
  H  H600  1  0.76973901  0.37010343  0.07784512  1
  O  O601  1  0.85940829  0.40534245  0.07884957  1
  C  C602  1  0.84298962  0.31736949  0.10463380  1
  C  C603  1  0.81113706  0.25772952  0.22296321  1
  C  C604  1  0.82464813  0.34625341  0.19369949  1
  C  C605  1  0.83186477  0.39545286  0.17066797  1
  H  H606  1  0.94233560  0.31334294  0.20347209  1
  C  C607  1  0.93602883  0.31700859  0.29805009  1
  H  H608  1  0.96663592  0.40629216  0.38370997  1
  O  O609  1  0.81695704  0.42422303  0.23269265  1
  O  O610  1  0.93259486  0.45720392  0.46253186  1
  C  C611  1  0.97302939  0.42391290  0.46841897  1
  C  C612  1  0.84894168  0.15597951  0.72103482  1
  C  C613  1  0.81325435  0.13917728  0.63794664  1
  C  C614  1  0.88333476  0.12750914  0.77428641  1
  C  C615  1  0.87882381  0.06069624  0.65089964  1
  C  C616  1  0.90442502  0.15375284  0.86556959  1
  O  O617  1  0.89736668  0.08512413  0.75651674  1
  H  H618  1  0.88218495  0.08838697  0.58874440  1
  C  C619  1  0.84178981  0.20442516  0.74250855  1
  H  H620  1  0.84198044  0.05404745  0.67480452  1
  H  H621  1  0.92601062  0.18041378  0.69740323  1
  C  C622  1  0.89824338  0.20082890  0.88943627  1
  C  C623  1  0.78444691  0.10300334  0.67862692  1
  H  H624  1  0.96174179  0.03737011  0.89694234  1
  C  C625  1  0.98279898  0.11969798  0.89861693  1
  H  H626  1  0.81509249  0.21982461  0.68712197  1
  C  C627  1  0.86805824  0.22843945  0.82064237  1
  C  C628  1  0.80132763  0.03749610  0.89531080  1
  C  C629  1  0.96341485  0.18484154  0.67562624  1
  H  H630  1  0.78408245  0.09387007  0.77304887  1
  H  H631  1  0.97858061  0.22633847  0.82689910  1
  C  C632  1  0.94019837  0.13596985  0.94886005  1
  H  H633  1  0.98924008  0.05145351  0.67796838  1
  H  H634  1  0.91909450  0.21852556  0.95303898  1
  C  C635  1  0.90032155  0.01458698  0.61190157  1
  C  C636  1  0.82085402  0.07108538  0.96448887  1
  H  H637  1  0.85810856  0.06937255  0.98962978  1
  C  C638  1  0.96232238  0.01602491  0.97444192  1
  H  H639  1  0.98083905  0.11069810  0.80289538  1
  C  C640  1  0.99174936  0.20937165  0.74960864  1
  C  C641  1  0.98483047  0.15897818  0.58349076  1
  C  C642  1  0.75860048  0.08214247  0.59169677  1
  C  C643  1  0.75249839  0.03273616  0.88855404  1
  H  H644  1  0.93977316  0.01467317  0.59936502  1
  H  H645  1  0.82299019  0.01369761  0.84526139  1
  C  C646  1  0.81187230  0.15653728  0.51971584  1
  H  H647  1  0.99660461  0.00002231  0.97819829  1
  H  H648  1  0.88560521  0.00014178  0.52746464  1
  H  H649  1  0.78702439  0.00812941  0.51123905  1
  H  H650  1  0.96257538  0.26426156  0.56559598  1
  H  H651  1  0.78449984  0.49221017  0.52781024  1
  C  C652  1  0.80978096  0.46407511  0.52264019  1
  H  H653  1  0.96005365  0.35770388  0.93983865  1
  C  C654  1  0.79697018  0.41811395  0.53699313  1
  C  C655  1  0.83019410  0.38413097  0.51884988  1
  H  H656  1  0.82519356  0.34614386  0.52785714  1
  H  H657  1  0.75727265  0.42024373  0.91871352  1
  C  C658  1  0.91951051  0.32268868  0.55016778  1
  H  H659  1  0.96281891  0.40423586  0.54702247  1
  H  H660  1  0.75305100  0.40987276  0.76388145  1
  C  C661  1  0.81177153  0.29441135  0.85315843  1
  C  C662  1  0.91496153  0.39572291  0.81772569  1
  H  H663  1  0.94182494  0.49683805  0.68017248  1
  H  H664  1  0.88192589  0.44115146  0.68360441  1
  H  H665  1  0.92955309  0.29743726  0.82390778  1
  C  C666  1  0.87841085  0.35990708  0.83403695  1
  C  C667  1  0.85763048  0.28111115  0.83789560  1
  C  C668  1  0.98491928  0.46113620  0.81943964  1
  C  C669  1  0.79985917  0.34143330  0.85521254  1
  H  H670  1  0.78511360  0.26890050  0.87476479  1
  C  C671  1  0.91042274  0.43581215  0.74572205  1
  C  C672  1  0.94660348  0.46697738  0.74419328  1
  C  C673  1  0.89279078  0.31311310  0.82623545  1
  O  O674  1  0.81948212  0.41960962  0.82658596  1
  C  C675  1  0.83183739  0.37622215  0.83654519  1
  C  C676  1  0.99011116  0.41993801  0.88519445  1
  C  C677  1  0.76790971  0.43189457  0.83165788  1
  C  C678  1  0.95542794  0.38765366  0.88475323  1
  H  H679  1  0.90724858  0.32481238  0.64264950  1
  C  C680  1  0.75014183  0.34744439  0.89602902  1
  H  H681  1  0.75599627  0.49646095  0.73549766  1
  C  C682  1  0.85544319  0.47439844  0.50564089  1
  C  C683  1  0.94609541  0.28812802  0.50346574  1
  H  H684  1  0.76186301  0.32439517  0.54111910  1
  C  C685  1  0.84574317  0.65272244  0.30896853  1
  O  O686  1  0.83052953  0.65158692  0.20772496  1
  C  C687  1  0.84915413  0.56794653  0.29829746  1
  C  C688  1  0.85534108  0.52509774  0.35398929  1
  H  H689  1  0.83962929  0.57067052  0.20712562  1
  C  C690  1  0.85285833  0.60805556  0.36699846  1
  O  O691  1  0.84705651  0.69082316  0.36302221  1
  Cu  Cu692  1  0.79554482  0.69849940  0.15305351  1
  C  C693  1  0.86421554  0.52456945  0.47973924  1
  H  H694  1  0.99227510  0.53449567  0.34436509  1
  H  H695  1  0.99167426  0.59648095  0.38391344  1
  Cu  Cu696  1  0.81760220  0.74564884  0.33921950  1
  O  O697  1  0.81594655  0.74844699  0.07644708  1
  C  C698  1  0.86620255  0.60905594  0.48705150  1
  C  C699  1  0.84070058  0.99825758  0.24638225  1
  O  O700  1  0.75797558  0.76924136  0.33043848  1
  H  H701  1  0.78309901  0.98765679  0.10419003  1
  H  H702  1  0.80854155  0.90385199  0.04685097  1
  C  C703  1  0.82391614  0.99438791  0.34237061  1
  C  C704  1  0.90653494  0.88148889  0.01820935  1
  H  H705  1  0.93295124  0.90461386  0.05588514  1
  H  H706  1  0.80932592  0.91097938  0.39649225  1
  C  C707  1  0.85938926  0.81446157  0.04623689  1
  C  C708  1  0.79779773  0.98057914  0.44918408  1
  O  O709  1  0.90479616  0.93999242  0.37220786  1
  C  C710  1  0.78151690  0.92376074  0.00187109  1
  C  C711  1  0.92934683  0.97145752  0.36114620  1
  C  C712  1  0.88924220  0.84851784  0.09178963  1
  C  C713  1  0.75661013  0.96120866  0.08070633  1
  O  O714  1  0.85512569  0.77834957  0.22819049  1
  C  C715  1  0.79329130  0.93380149  0.46502402  1
  H  H716  1  0.98715305  0.80179991  0.34424195  1
  C  C717  1  0.84362180  0.77809095  0.12219873  1
  H  H718  1  0.89951114  0.84943646  0.18454534  1
  H  H719  1  0.99628916  0.92982064  0.29013913  1
  C  C720  1  0.90374919  0.70477413  0.64531549  1
  C  C721  1  0.90107976  0.66359530  0.72132588  1
  O  O722  1  0.98254987  0.69253038  0.58567496  1
  C  C723  1  0.94653525  0.71871806  0.58860121  1
  C  C724  1  0.86014248  0.66188321  0.79557879  1
  C  C725  1  0.93575984  0.62863492  0.72979461  1
  H  H726  1  0.96807149  0.63211686  0.68242301  1
  H  H727  1  0.83396462  0.68965253  0.79606648  1
  C  C728  1  0.85086896  0.62294816  0.86164578  1
  C  C729  1  0.92645721  0.59032874  0.79948729  1
  C  C730  1  0.88434674  0.58818018  0.85970287  1
  H  H731  1  0.83267063  0.71500754  0.67611704  1
  C  C732  1  0.86314969  0.72908690  0.63843493  1
  H  H733  1  0.95301578  0.56487090  0.80827328  1
  C  C734  1  0.87024630  0.54687522  0.93515144  1
  H  H735  1  0.88057354  0.56470789  0.63668057  1
  O  O736  1  0.89729893  0.51306421  0.95478177  1
  H  H737  1  0.77268331  0.72717151  0.58917455  1
  H  H738  1  0.82091001  0.62037568  0.91961302  1
  H  H739  1  0.87163058  0.64237679  0.53164588  1
  C  C740  1  0.86936840  0.56675442  0.54174405  1
  H  H741  1  0.75627682  0.50277821  0.89418795  1
  O  O742  1  0.83201936  0.54733260  0.97353362  1
  H  H743  1  0.79639620  0.93925507  0.92090905  1
  C  C744  1  0.81361502  0.79536785  0.57255994  1
  H  H745  1  0.83969700  0.86608295  0.54956011  1
  H  H746  1  0.90342047  0.82726783  0.51645930  1
  H  H747  1  0.98021476  0.88561392  0.54208954  1
  C  C748  1  0.77527665  0.76537819  0.58423735  1
  H  H749  1  0.89412898  0.98740285  0.68312596  1
  C  C750  1  0.95161370  0.94861066  0.84662233  1
  C  C751  1  0.76935179  0.91183339  0.56210893  1
  C  C752  1  0.98620336  0.79389015  0.53349230  1
  H  H753  1  0.92689965  0.85021527  0.68585123  1
  C  C754  1  0.80895171  0.84296601  0.55946803  1
  H  H755  1  0.82082631  0.79179473  0.88740307  1
  H  H756  1  0.86304962  0.84324474  0.75701398  1
  C  C757  1  0.94255479  0.88254471  0.70854361  1
  O  O758  1  0.93862197  0.96855993  0.94273600  1
  C  C759  1  0.93264009  0.90490608  0.81430991  1
  C  C760  1  0.75420764  0.93718206  0.66338162  1
  C  C761  1  0.86040428  0.77129182  0.58077354  1
  H  H762  1  0.99322151  0.79161552  0.72807818  1
  C  C763  1  0.90229616  0.79143475  0.55017401  1
  C  C764  1  0.76506360  0.85963982  0.57961903  1
  C  C765  1  0.84670720  0.81615976  0.92702159  1
  C  C766  1  0.97053724  0.90510270  0.62357240  1
  C  C767  1  0.98717467  0.96227349  0.76578807  1
  C  C768  1  0.90110879  0.87841011  0.89308682  1
  O  O769  1  0.76890599  0.97357991  0.71952611  1
  C  C770  1  0.99535287  0.94366884  0.65500718  1
  C  C771  1  0.94225860  0.76619196  0.55215370  1
  C  C772  1  0.87020771  0.84488098  0.84800320  1
  H  H773  1  0.75314607  0.89911801  0.97246040  1
