# generated using pymatgen
data_CuH15C22O5
_symmetry_space_group_name_H-M   'P 1'
_cell_length_a   30.97699868
_cell_length_b   31.88727574
_cell_length_c   9.07040168
_cell_angle_alpha   90.00000000
_cell_angle_beta   90.00000000
_cell_angle_gamma   90.00000000
_symmetry_Int_Tables_number   1
_chemical_formula_structural   CuH15C22O5
_chemical_formula_sum   'Cu18 H270 C396 O90'
_cell_volume   8959.48969994
_cell_formula_units_Z   18
loop_
 _symmetry_equiv_pos_site_id
 _symmetry_equiv_pos_as_xyz
  1  'x, y, z'
loop_
 _atom_site_type_symbol
 _atom_site_label
 _atom_site_symmetry_multiplicity
 _atom_site_fract_x
 _atom_site_fract_y
 _atom_site_fract_z
 _atom_site_occupancy
  O  O0  1  0.07939865  0.14943130  0.25455557  1
  Cu  Cu1  1  0.04960081  0.18071960  0.38866707  1
  C  C2  1  0.20645093  0.04467220  0.26952921  1
  H  H3  1  0.14371470  0.10799904  0.19382152  1
  H  H4  1  0.19174949  0.05690654  0.36801820  1
  O  O5  1  0.07620056  0.23186343  0.33686467  1
  H  H6  1  0.18183801  0.22770158  0.09174915  1
  C  C7  1  0.21811270  0.23269048  0.09912762  1
  C  C8  1  0.06555547  0.13681386  0.12110563  1
  C  C9  1  0.13743488  0.10406057  0.07331756  1
  O  O10  1  0.02697368  0.13601362  0.09369317  1
  H  H11  1  0.19694590  0.07318103  0.03662365  1
  C  C12  1  0.09730465  0.11510006  0.01334983  1
  H  H13  1  0.23355287  0.16911395  0.07698967  1
  C  C14  1  0.24490448  0.06588722  0.21181779  1
  C  C15  1  0.18895868  0.01059442  0.19773613  1
  C  C16  1  0.24671755  0.20093546  0.07844353  1
  H  H17  1  0.03382098  0.22946883  0.06054601  1
  H  H18  1  0.01430299  0.47906911  0.39751335  1
  H  H19  1  0.08036383  0.40603944  0.17009095  1
  C  C20  1  0.13934515  0.45813576  0.35240205  1
  C  C21  1  0.23382324  0.44486873  0.37155981  1
  Cu  Cu22  1  0.20742135  0.39889215  0.03097556  1
  C  C23  1  0.13075756  0.38080643  0.31458975  1
  O  O24  1  0.09743185  0.46009195  0.33953589  1
  C  C25  1  0.20299331  0.30822695  0.12369582  1
  H  H26  1  0.13589987  0.28042012  0.43447016  1
  O  O27  1  0.02006717  0.26938075  0.26185776  1
  C  C28  1  0.23605194  0.27325304  0.12808617  1
  H  H29  1  0.21657472  0.37794140  0.34995572  1
  C  C30  1  0.09416532  0.37873128  0.22096427  1
  C  C31  1  0.21530559  0.48561567  0.36892572  1
  C  C32  1  0.14794064  0.34397134  0.38048562  1
  C  C33  1  0.05878275  0.26542148  0.29432758  1
  O  O34  1  0.16529371  0.30417383  0.10736944  1
  C  C35  1  0.12429645  0.30778241  0.37752805  1
  H  H36  1  0.17835980  0.34485132  0.45015060  1
  C  C37  1  0.07229615  0.33978865  0.21572626  1
  C  C38  1  0.17128328  0.49068373  0.35793697  1
  C  C39  1  0.20443972  0.41152375  0.35435723  1
  H  H40  1  0.04790553  0.33610667  0.13426387  1
  O  O41  1  0.22323915  0.34819595  0.10555803  1
  C  C42  1  0.08560344  0.30512515  0.29496096  1
  C  C43  1  0.16020203  0.41828192  0.34031086  1
  C  C44  1  0.20660467  0.07092257  0.75203355  1
  H  H45  1  0.11527291  0.09270373  0.65312286  1
  C  C46  1  0.12228088  0.09350779  0.77100302  1
  C  C47  1  0.16454584  0.08329206  0.82547793  1
  C  C48  1  0.09011902  0.11218153  0.85686417  1
  H  H49  1  0.05770621  0.12498507  0.81130093  1
  C  C50  1  0.20648894  0.03519935  0.65644620  1
  O  O51  1  0.16938640  0.01586361  0.63440281  1
  H  H52  1  0.23441566  0.12252808  0.88155701  1
  C  C53  1  0.01281000  0.21784939  0.96882086  1
  H  H54  1  0.03437147  0.19812857  0.90306370  1
  O  O55  1  0.00136470  0.15973279  0.70398805  1
  C  C56  1  0.23962088  0.09789648  0.79548864  1
  H  H57  1  0.06014150  0.00435485  0.84874810  1
  C  C58  1  0.16842716  0.08642673  0.98255792  1
  H  H59  1  0.14346827  0.00720068  0.92293094  1
  H  H60  1  0.07950515  0.04270611  0.98036189  1
  O  O61  1  0.01303892  0.20494483  0.52357159  1
  C  C62  1  0.07466591  0.00826038  0.95850907  1
  C  C63  1  0.24005213  0.02074230  0.99581890  1
  C  C64  1  0.09632855  0.31950776  0.80647336  1
  O  O65  1  0.22878105  0.37318977  0.62829376  1
  O  O66  1  0.22915458  0.31841835  0.77400851  1
  C  C67  1  0.23196004  0.46676165  0.86552920  1
  C  C68  1  0.20862033  0.34805687  0.70695804  1
  C  C69  1  0.07317654  0.35368751  0.73678315  1
  C  C70  1  0.16186350  0.35185177  0.72131489  1
  C  C71  1  0.14136278  0.38652981  0.65613900  1
  C  C72  1  0.09670184  0.38579108  0.66451100  1
  H  H73  1  0.02298903  0.47929976  0.78336766  1
  H  H74  1  0.07957967  0.29418391  0.87139674  1
  C  C75  1  0.02544538  0.36067988  0.73163598  1
  O  O76  1  0.20551196  0.44969991  0.95706858  1
  C  C77  1  0.01032602  0.40094403  0.71483047  1
  C  C78  1  0.14131049  0.31895377  0.79838600  1
  H  H79  1  0.03342629  0.42667167  0.69096587  1
  H  H80  1  0.15841288  0.29512108  0.85817118  1
  O  O81  1  0.23178885  0.45964514  0.73067863  1
  H  H82  1  0.07824180  0.40930977  0.59799978  1
  O  O83  1  0.01545898  0.29198261  0.81491152  1
  H  H84  1  0.16027960  0.41058210  0.59092602  1
  H  H85  1  0.14122578  0.61950238  0.13450841  1
  H  H86  1  0.16198090  0.54378335  0.12149666  1
  C  C87  1  0.15407708  0.56015852  0.22758107  1
  C  C88  1  0.14519056  0.60148351  0.23482641  1
  H  H89  1  0.09135033  0.52504532  0.24909878  1
  O  O90  1  0.11690650  0.68695663  0.26453231  1
  C  C91  1  0.15810066  0.53703723  0.36122082  1
  C  C92  1  0.13693136  0.62066392  0.37131055  1
  C  C93  1  0.12200773  0.66475784  0.38036192  1
  H  H94  1  0.23525400  0.51250493  0.37829009  1
  Cu  Cu95  1  0.15305533  0.73168016  0.23949224  1
  C  C96  1  0.02697830  0.50859639  0.35150641  1
  H  H97  1  0.00376993  0.61273310  0.06496545  1
  H  H98  1  0.01719336  0.59988565  0.25412981  1
  H  H99  1  0.09005636  0.51951669  0.44873697  1
  H  H100  1  0.01861838  0.53355407  0.42527058  1
  H  H101  1  0.01075648  0.51132656  0.24204969  1
  C  C102  1  0.07638118  0.50621745  0.33864180  1
  C  C103  1  0.15151669  0.55669181  0.49945505  1
  C  C104  1  0.24779227  0.94055276  0.00139299  1
  H  H105  1  0.12721303  0.98045864  0.08122944  1
  C  C106  1  0.02730061  0.95865877  0.38043863  1
  C  C107  1  0.06581959  0.93938134  0.35238614  1
  O  O108  1  0.19968509  0.76908228  0.21484244  1
  C  C109  1  0.22566538  0.75646570  0.11796877  1
  O  O110  1  0.06418292  0.76939267  0.48000622  1
  C  C111  1  0.20566389  0.99554690  0.06293955  1
  H  H112  1  0.13883744  0.86482197  0.10336504  1
  H  H113  1  0.11906187  0.90176871  0.27431960  1
  H  H114  1  0.15868969  0.99520898  0.23839840  1
  H  H115  1  0.00015803  0.84012412  0.03115513  1
  C  C116  1  0.08507807  0.91209050  0.25869539  1
  H  H117  1  0.18392194  0.80885548  0.41410490  1
  C  C118  1  0.01245343  0.91025311  0.15071909  1
  H  H119  1  0.01897515  0.83257256  0.30775532  1
  H  H120  1  0.19615419  0.97773566  0.47045130  1
  C  C121  1  0.11272732  0.84520814  0.06025470  1
  C  C122  1  0.06730197  0.85537458  0.07029537  1
  C  C123  1  0.16710859  0.82535973  0.49867493  1
  C  C124  1  0.09929121  0.78619580  0.43183324  1
  O  O125  1  0.11558584  0.77383974  0.31385074  1
  C  C126  1  0.05520018  0.89352960  0.14663035  1
  H  H127  1  0.12898534  0.94867285  0.39493420  1
  H  H128  1  0.01836984  0.98366003  0.45902321  1
  C  C129  1  0.00037995  0.94097483  0.26386309  1
  H  H130  1  0.05006238  0.99850540  0.04518891  1
  H  H131  1  0.13725560  0.61445803  0.61238407  1
  H  H132  1  0.16031757  0.54224018  0.60439396  1
  C  C133  1  0.02242736  0.60086318  0.79435210  1
  C  C134  1  0.02132507  0.55679096  0.76356858  1
  C  C135  1  0.05922578  0.62312824  0.83854689  1
  C  C136  1  0.09741171  0.60027807  0.83677877  1
  C  C137  1  0.10046964  0.55741079  0.79422020  1
  C  C138  1  0.06290527  0.53647597  0.76461777  1
  C  C139  1  0.13747350  0.62507627  0.87251437  1
  H  H140  1  0.06091870  0.65786373  0.86216936  1
  H  H141  1  0.12990349  0.53876585  0.79260949  1
  Cu  Cu142  1  0.06506009  0.71607859  0.54411388  1
  O  O143  1  0.01175218  0.69005429  0.55714799  1
  O  O144  1  0.11334385  0.67978882  0.50479964  1
  H  H145  1  0.06471094  0.50275439  0.74242675  1
  O  O146  1  0.06988800  0.73127109  0.75085713  1
  C  C147  1  0.14141380  0.59874784  0.50690711  1
  O  O148  1  0.12957768  0.66435945  0.91367758  1
  O  O149  1  0.17283957  0.61172768  0.87072420  1
  Cu  Cu150  1  0.16852190  0.70748791  0.94553836  1
  O  O151  1  0.13932675  0.74356951  0.79883087  1
  O  O152  1  0.21096295  0.74709964  0.98872540  1
  C  C153  1  0.10030475  0.75275386  0.81228265  1
  C  C154  1  0.12287369  0.81141464  0.97135045  1
  C  C155  1  0.19005913  0.84918159  0.59974105  1
  H  H156  1  0.00296164  0.90057843  0.77847763  1
  C  C157  1  0.08962054  0.78812993  0.89761606  1
  C  C158  1  0.23029078  0.87762684  0.86144666  1
  C  C159  1  0.12083679  0.86113540  0.73504965  1
  C  C160  1  0.13986611  0.93929225  0.50459285  1
  H  H161  1  0.15395139  0.90707054  0.50324081  1
  H  H162  1  0.01535049  0.85469178  0.67215992  1
  C  C163  1  0.09932844  0.83265596  0.64517100  1
  C  C164  1  0.04356699  0.79788192  0.90860122  1
  C  C165  1  0.18899667  0.89430714  0.83044422  1
  H  H166  1  0.19529515  0.95217982  0.64276140  1
  H  H167  1  0.06529682  0.82149214  0.66834891  1
  C  C168  1  0.17366963  0.96989477  0.56573326  1
  C  C169  1  0.16641429  0.86681023  0.72105213  1
  C  C170  1  0.11846868  0.98502566  0.96762840  1
  H  H171  1  0.22432495  0.85228671  0.59200239  1
  C  C172  1  0.17202524  0.93185312  0.90148309  1
  H  H173  1  0.11069485  0.94057445  0.58063076  1
  H  H174  1  0.24074155  0.84743403  0.81453554  1
  O  O175  1  0.13284324  0.94464383  0.88126259  1
  H  H176  1  0.15585213  0.80235464  0.94108115  1
  H  H177  1  0.10503449  0.87836920  0.82847599  1
  H  H178  1  0.01809476  0.77995894  0.84464027  1
  C  C179  1  0.12245943  0.81572901  0.52544801  1
  C  C180  1  0.20520413  0.95370573  0.98264364  1
  C  C181  1  0.03410229  0.83106529  0.99533046  1
  Cu  Cu182  1  0.34661708  0.14225487  0.29436330  1
  O  O183  1  0.36949788  0.18499130  0.40166884  1
  O  O184  1  0.30854575  0.10488164  0.21488511  1
  H  H185  1  0.46676331  0.02372691  0.15052063  1
  H  H186  1  0.39397709  0.05559713  0.07470421  1
  C  C187  1  0.37277434  0.03212406  0.38280915  1
  C  C188  1  0.27326918  0.09408917  0.28439800  1
  H  H189  1  0.43666878  0.15364321  0.12692502  1
  C  C190  1  0.43647223  0.18888757  0.12017426  1
  O  O191  1  0.38616189  0.19664131  0.09879302  1
  C  C192  1  0.46377485  0.05521388  0.09570427  1
  H  H193  1  0.34712567  0.03713055  0.29959122  1
  C  C194  1  0.46597142  0.20923990  0.23696397  1
  C  C195  1  0.29232562  0.20911099  0.06462790  1
  H  H196  1  0.48368575  0.09594748  0.29976875  1
  C  C197  1  0.42577791  0.07092962  0.04287086  1
  C  C198  1  0.25983593  0.05203227  0.07351279  1
  O  O199  1  0.26404873  0.11187786  0.40432439  1
  C  C200  1  0.34245045  0.20848736  0.47070916  1
  C  C201  1  0.37862533  0.06665375  0.48312581  1
  H  H202  1  0.45268881  0.20544090  0.35309643  1
  O  O203  1  0.35693487  0.10491723  0.45990714  1
  H  H204  1  0.48370500  0.05476705  0.43962578  1
  C  C205  1  0.49243519  0.08785011  0.41854020  1
  H  H206  1  0.46948693  0.24434698  0.21907476  1
  C  C207  1  0.30798629  0.24778192  0.12107632  1
  H  H208  1  0.26010510  0.00428104  0.31902303  1
  C  C209  1  0.36514640  0.17067980  0.01369689  1
  H  H210  1  0.39605101  0.24764780  0.31125918  1
  H  H211  1  0.49920057  0.19241719  0.22896170  1
  H  H212  1  0.28936784  0.06823019  0.02590935  1
  H  H213  1  0.44505831  0.19908923  0.01043184  1
  C  C214  1  0.49347337  0.34393588  0.09540394  1
  O  O215  1  0.43542107  0.47466410  0.04040260  1
  H  H216  1  0.48892486  0.42210348  0.16613965  1
  C  C217  1  0.39029706  0.45045322  0.03906275  1
  C  C218  1  0.34088602  0.25349708  0.44857662  1
  H  H219  1  0.34346442  0.25177522  0.13964378  1
  C  C220  1  0.38941565  0.40277694  0.06748818  1
  C  C221  1  0.34281614  0.33835707  0.40285719  1
  C  C222  1  0.28005203  0.49270737  0.06420618  1
  H  H223  1  0.25833691  0.47952020  0.14770255  1
  H  H224  1  0.42317975  0.39375139  0.10756045  1
  H  H225  1  0.47329458  0.37201676  0.08394064  1
  O  O226  1  0.48606265  0.33111371  0.47204225  1
  H  H227  1  0.45588075  0.29497890  0.06548010  1
  C  C228  1  0.27962315  0.28040177  0.15747952  1
  H  H229  1  0.37256680  0.46821680  0.12452684  1
  H  H230  1  0.48069885  0.36176246  0.47044856  1
  H  H231  1  0.27229888  0.36712949  0.36775118  1
  C  C232  1  0.35654923  0.45387146  0.41874304  1
  H  H233  1  0.42109031  0.45821835  0.29506484  1
  C  C234  1  0.37681512  0.31295706  0.34053730  1
  C  C235  1  0.37451837  0.41323048  0.38903558  1
  H  H236  1  0.36709707  0.39123511  0.14772735  1
  C  C237  1  0.38202903  0.49224484  0.47317861  1
  C  C238  1  0.44587563  0.43625503  0.35541243  1
  C  C239  1  0.31296334  0.46832112  0.40791352  1
  H  H240  1  0.29094187  0.31379144  0.18862180  1
  C  C241  1  0.29466077  0.39333906  0.37602575  1
  C  C242  1  0.37394271  0.26946997  0.35761663  1
  H  H243  1  0.44986721  0.44932293  0.46627014  1
  O  O244  1  0.41426316  0.40122682  0.37290503  1
  C  C245  1  0.28200547  0.43711885  0.37531759  1
  C  C246  1  0.33819558  0.38547834  0.38306022  1
  H  H247  1  0.49985751  0.25903743  0.47786194  1
  H  H248  1  0.40317334  0.32817076  0.28399183  1
  H  H249  1  0.49343516  0.33371533  0.21822128  1
  C  C250  1  0.48932448  0.43746142  0.27430006  1
  H  H251  1  0.37186680  0.07890073  0.80391158  1
  C  C252  1  0.35813139  0.10537042  0.85192948  1
  H  H253  1  0.46380591  0.15807989  0.85350949  1
  C  C254  1  0.31412670  0.11329793  0.83689422  1
  C  C255  1  0.46199464  0.18547869  0.62354099  1
  C  C256  1  0.28742099  0.05129727  0.65157647  1
  C  C257  1  0.28239894  0.08597680  0.75119711  1
  H  H258  1  0.31952698  0.03975983  0.62035932  1
  C  C259  1  0.43492508  0.21759253  0.63511397  1
  H  H260  1  0.40054725  0.21986520  0.59758680  1
  H  H261  1  0.26318729  0.15806048  0.90570268  1
  C  C262  1  0.29722112  0.14873453  0.90824599  1
  C  C263  1  0.41468481  0.05860385  0.57838790  1
  O  O264  1  0.44411309  0.05112761  0.65266778  1
  Cu  Cu265  1  0.30614448  0.13093253  0.54202836  1
  C  C266  1  0.46464496  0.13082561  0.92844170  1
  O  O267  1  0.31425701  0.19038867  0.54833576  1
  C  C268  1  0.25078988  0.02756491  0.62739176  1
  C  C269  1  0.38192352  0.13266491  0.94152428  1
  C  C270  1  0.49259764  0.24554405  0.80488553  1
  C  C271  1  0.42509845  0.11053591  0.96177956  1
  C  C272  1  0.32063436  0.17572895  0.99995498  1
  H  H273  1  0.25315191  0.01347163  0.87817964  1
  H  H274  1  0.47282196  0.10741178  0.50289421  1
  C  C275  1  0.39556355  0.28475601  0.88543312  1
  H  H276  1  0.28652766  0.33721702  0.55607559  1
  C  C277  1  0.45388831  0.25003984  0.73481464  1
  H  H278  1  0.49743570  0.47373562  0.90137066  1
  C  C279  1  0.47964411  0.30824413  0.98976213  1
  C  C280  1  0.27111327  0.48856016  0.91573555  1
  H  H281  1  0.37417790  0.46065200  0.93514184  1
  C  C282  1  0.32583419  0.37953952  0.82235169  1
  H  H283  1  0.39799052  0.46093444  0.68235276  1
  O  O284  1  0.31896377  0.40785334  0.72917085  1
  Cu  Cu285  1  0.25366288  0.33810973  0.93657429  1
  Cu  Cu286  1  0.26930897  0.42106219  0.65309256  1
  C  C287  1  0.41684782  0.31842059  0.65306403  1
  C  C288  1  0.40246896  0.49016209  0.61312554  1
  H  H289  1  0.43717960  0.31890496  0.55172742  1
  C  C290  1  0.36201226  0.34959242  0.80195993  1
  C  C291  1  0.42105613  0.28493755  0.75339984  1
  C  C292  1  0.38849510  0.35076078  0.67491021  1
  H  H293  1  0.38324954  0.38479471  0.96271145  1
  H  H294  1  0.46341070  0.32448301  0.89438267  1
  O  O295  1  0.30108733  0.37276923  0.92951792  1
  H  H296  1  0.28436654  0.26221607  0.59054505  1
  C  C297  1  0.36423605  0.31620283  0.90613337  1
  H  H298  1  0.38596548  0.37582252  0.59331396  1
  C  C299  1  0.30966761  0.27690239  0.52858077  1
  H  H300  1  0.33862345  0.31373374  0.99167475  1
  H  H301  1  0.39667145  0.25747261  0.96043212  1
  C  C302  1  0.31213095  0.31957518  0.50488916  1
  C  C303  1  0.39389371  0.67408637  0.18943074  1
  H  H304  1  0.36188252  0.66315067  0.15476802  1
  C  C305  1  0.43170526  0.64836136  0.17218449  1
  C  C306  1  0.47134128  0.66517084  0.23068253  1
  C  C307  1  0.40054838  0.71481963  0.23944510  1
  C  C308  1  0.47439003  0.70597375  0.28446571  1
  C  C309  1  0.43061967  0.60508847  0.11784895  1
  H  H310  1  0.43254159  0.58205168  0.34420929  1
  C  C311  1  0.39066367  0.52753562  0.38061128  1
  H  H312  1  0.37632457  0.53150531  0.27277787  1
  C  C313  1  0.42229840  0.55659227  0.42175741  1
  C  C314  1  0.47085309  0.58235372  0.11134988  1
  C  C315  1  0.39218343  0.58359381  0.08676393  1
  C  C316  1  0.47122162  0.54068607  0.07801530  1
  C  C317  1  0.31941168  0.51012322  0.10500838  1
  H  H318  1  0.33076409  0.50947941  0.21686427  1
  C  C319  1  0.35643181  0.73424686  0.21227725  1
  H  H320  1  0.30299064  0.50090084  0.42669426  1
  H  H321  1  0.46037643  0.73884112  0.07078400  1
  H  H322  1  0.35996044  0.59810511  0.09052845  1
  C  C323  1  0.39591329  0.54154420  0.05279495  1
  C  C324  1  0.43854287  0.73392968  0.30319620  1
  C  C325  1  0.34161027  0.73219842  0.06532947  1
  C  C326  1  0.29853929  0.74120228  0.03470959  1
  C  C327  1  0.43391798  0.51452320  0.04970149  1
  H  H328  1  0.49894778  0.64550634  0.22421622  1
  C  C329  1  0.35245701  0.52481179  0.00833673  1
  H  H330  1  0.34215040  0.75818713  0.43815873  1
  C  C331  1  0.32959956  0.75146669  0.32931933  1
  C  C332  1  0.27148544  0.75195619  0.15232680  1
  C  C333  1  0.39585980  0.99431357  0.38939682  1
  C  C334  1  0.28860147  0.76007104  0.29661717  1
  C  C335  1  0.42587881  0.79513704  0.00291857  1
  H  H336  1  0.28331447  0.88779301  0.26355759  1
  H  H337  1  0.46960911  0.91730201  0.26071547  1
  C  C338  1  0.33148259  0.91920407  0.06405852  1
  O  O339  1  0.44348400  0.77170574  0.34871566  1
  C  C340  1  0.40459699  0.80185979  0.35036602  1
  H  H341  1  0.26714690  0.77112296  0.37832116  1
  C  C342  1  0.43912698  0.91196093  0.19713625  1
  H  H343  1  0.31826179  0.94729342  0.12377240  1
  H  H344  1  0.27238497  0.95939342  0.06192464  1
  C  C345  1  0.40028800  0.93372889  0.20875947  1
  H  H346  1  0.42481686  0.98869103  0.45910528  1
  C  C347  1  0.39897354  0.87717687  0.03948687  1
  H  H348  1  0.38773954  0.78302342  0.43632777  1
  H  H349  1  0.44204268  0.86130486  0.36870977  1
  O  O350  1  0.27537566  0.94705593  0.30845212  1
  H  H351  1  0.38212740  0.86763536  0.34353224  1
  C  C352  1  0.40857031  0.84782422  0.39799307  1
  C  C353  1  0.26722046  0.97915406  0.39794324  1
  C  C354  1  0.37998269  0.96716774  0.28262506  1
  C  C355  1  0.28117894  0.90882454  0.36242606  1
  H  H356  1  0.34653781  0.97467504  0.26001761  1
  C  C357  1  0.37416456  0.91132600  0.10090464  1
  H  H358  1  0.38697072  0.79770476  0.24600978  1
  H  H359  1  0.42842356  0.80849309  0.11336244  1
  O  O360  1  0.44095376  0.88160870  0.09889454  1
  H  H361  1  0.36311247  0.53605529  0.76919647  1
  O  O362  1  0.49056112  0.57978884  0.72287722  1
  C  C363  1  0.47490412  0.58624833  0.60126494  1
  C  C364  1  0.43410594  0.51971699  0.64986503  1
  C  C365  1  0.34144753  0.52209049  0.85454942  1
  C  C366  1  0.45954681  0.69924461  0.79154023  1
  Cu  Cu367  1  0.49227200  0.62227315  0.86474432  1
  O  O368  1  0.45573769  0.68848007  0.65738707  1
  O  O369  1  0.48381698  0.67930599  0.87638101  1
  C  C370  1  0.30199125  0.50527904  0.81576504  1
  H  H371  1  0.45143893  0.51717861  0.75434670  1
  C  C372  1  0.43984875  0.73944250  0.83735239  1
  H  H373  1  0.41265226  0.74083621  0.61721516  1
  C  C374  1  0.44217155  0.55435375  0.56127879  1
  H  H375  1  0.36312608  0.72191780  0.97138747  1
  H  H376  1  0.28454303  0.73913599  0.92150869  1
  O  O377  1  0.48563344  0.61504282  0.51219693  1
  H  H378  1  0.29437536  0.50557353  0.69959739  1
  C  C379  1  0.25980540  0.89966746  0.95307245  1
  C  C380  1  0.44523121  0.75613987  0.97743081  1
  H  H381  1  0.26358988  0.96172197  0.78177695  1
  C  C382  1  0.28354349  0.91459606  0.65023473  1
  C  C383  1  0.38996256  0.79160301  0.75896647  1
  C  C384  1  0.29838716  0.84999407  0.53440089  1
  H  H385  1  0.31180224  0.82883419  0.86792029  1
  O  O386  1  0.30676640  0.81569388  0.56745987  1
  H  H387  1  0.36639420  0.80639917  0.68075957  1
  C  C388  1  0.39716085  0.81150662  0.89594201  1
  C  C389  1  0.37382872  0.84913956  0.95851555  1
  C  C390  1  0.26151553  0.98552309  0.54519057  1
  C  C391  1  0.41433450  0.75643237  0.72261508  1
  C  C392  1  0.32884791  0.85457905  0.92536929  1
  H  H393  1  0.29194901  0.89641820  0.74986741  1
  C  C394  1  0.26785214  0.95385060  0.66363149  1
  C  C395  1  0.28639609  0.89303088  0.50667058  1
  C  C396  1  0.30755279  0.88954624  0.97796333  1
  H  H397  1  0.40349220  0.85008575  0.52019027  1
  C  C398  1  0.62871467  0.17760296  0.45913617  1
  C  C399  1  0.60346228  0.21793300  0.46488539  1
  C  C400  1  0.67325272  0.18045433  0.44560957  1
  C  C401  1  0.69788369  0.14352806  0.42383791  1
  H  H402  1  0.68708804  0.21107288  0.42873216  1
  H  H403  1  0.64172715  0.04517890  0.26571436  1
  H  H404  1  0.71727039  0.10718841  0.16415601  1
  C  C405  1  0.62913413  0.03053747  0.36969987  1
  O  O406  1  0.69529224  0.19278291  0.14143083  1
  C  C407  1  0.54383568  0.05622435  0.08140002  1
  H  H408  1  0.56274642  0.07251576  0.39493906  1
  H  H409  1  0.61036823  0.21796161  0.18204997  1
  C  C410  1  0.60528355  0.13929856  0.47254014  1
  C  C411  1  0.67806269  0.10441458  0.43587451  1
  O  O412  1  0.56253876  0.13598973  0.47352205  1
  C  C413  1  0.54049975  0.09078935  0.46517733  1
  H  H414  1  0.53936799  0.22866436  0.07980880  1
  H  H415  1  0.74915701  0.02495292  0.22223983  1
  C  C416  1  0.63339611  0.10386130  0.46613877  1
  H  H417  1  0.69401705  0.07227810  0.41177026  1
  C  C418  1  0.74391229  0.13664071  0.36399942  1
  C  C419  1  0.61978430  0.05909865  0.49034206  1
  C  C420  1  0.74737071  0.11514740  0.22803377  1
  O  O421  1  0.57877901  0.06716061  0.05121770  1
  C  C422  1  0.55705290  0.22029670  0.46827328  1
  H  H423  1  0.53669296  0.18989633  0.46366182  1
  C  C424  1  0.60295857  0.20414952  0.07086780  1
  C  C425  1  0.74558588  0.01485996  0.10535544  1
  C  C426  1  0.50213494  0.07641298  0.04754746  1
  O  O427  1  0.53815771  0.01334987  0.17138771  1
  C  C428  1  0.56201324  0.20957036  0.01670076  1
  C  C429  1  0.68013251  0.17616915  0.02943559  1
  C  C430  1  0.72393134  0.45212355  0.46038025  1
  H  H431  1  0.66217289  0.25538956  0.45141825  1
  C  C432  1  0.62610445  0.25783968  0.45056874  1
  O  O433  1  0.54731817  0.37005832  0.40757811  1
  H  H434  1  0.52671576  0.35278375  0.06187414  1
  C  C435  1  0.73905684  0.31689241  0.42945124  1
  H  H436  1  0.50079645  0.47128139  0.26178721  1
  C  C437  1  0.60519143  0.29667018  0.43529582  1
  O  O438  1  0.74020728  0.47484653  0.06593089  1
  C  C439  1  0.72946809  0.40409423  0.45199570  1
  H  H440  1  0.62515844  0.32595516  0.41748504  1
  C  C441  1  0.62960034  0.45119526  0.09939390  1
  C  C442  1  0.58901740  0.47564440  0.09186664  1
  H  H443  1  0.51796634  0.42182918  0.32918812  1
  O  O444  1  0.73088363  0.25732770  0.28564900  1
  H  H445  1  0.69751476  0.39864367  0.23983248  1
  C  C446  1  0.74252215  0.27017569  0.42019201  1
  C  C447  1  0.71420762  0.38113877  0.32740837  1
  O  O448  1  0.65926463  0.46520309  0.18187763  1
  C  C449  1  0.55807557  0.29597419  0.44245518  1
  C  C450  1  0.53429457  0.25858600  0.46670054  1
  H  H451  1  0.70676325  0.31957400  0.21211111  1
  C  C452  1  0.71686455  0.33704430  0.31054939  1
  C  C453  1  0.53492211  0.33618051  0.43587038  1
  O  O454  1  0.64007716  0.42488301  0.00084567  1
  H  H455  1  0.59533496  0.05957560  0.71733968  1
  C  C456  1  0.60181699  0.04062294  0.61710459  1
  C  C457  1  0.55385333  0.19590005  0.86648091  1
  C  C458  1  0.62564064  0.16606232  0.84720885  1
  C  C459  1  0.58469620  0.17155425  0.79042865  1
  H  H460  1  0.65329530  0.15069323  0.78550019  1
  H  H461  1  0.57763729  0.16224111  0.67431822  1
  C  C462  1  0.51453101  0.20725208  0.77699492  1
  H  H463  1  0.51787945  0.14496793  0.64445272  1
  O  O464  1  0.70415272  0.15661099  0.93946231  1
  C  C465  1  0.63455067  0.18324393  0.98703779  1
  H  H466  1  0.53682671  0.13019503  0.94077556  1
  C  C467  1  0.50456279  0.11540103  0.97358082  1
  H  H468  1  0.54690476  0.08216811  0.58129032  1
  C  C469  1  0.50046882  0.17465036  0.67118257  1
  H  H470  1  0.60547450  0.24419299  0.82108936  1
  C  C471  1  0.74931401  0.47433025  0.92875962  1
  C  C472  1  0.56119094  0.46314505  0.97921245  1
  H  H473  1  0.57699584  0.26109417  0.65901793  1
  C  C474  1  0.52280810  0.48509689  0.97519842  1
  O  O475  1  0.66405839  0.45183810  0.61690182  1
  C  C476  1  0.69013810  0.47334855  0.54077245  1
  O  O477  1  0.72807857  0.45015003  0.84250880  1
  H  H478  1  0.54794557  0.32712773  0.80814869  1
  H  H479  1  0.61791753  0.29533766  0.74324724  1
  C  C480  1  0.59015173  0.27325236  0.77027307  1
  H  H481  1  0.57581016  0.30566969  0.98109642  1
  C  C482  1  0.55926616  0.29774668  0.87096106  1
  O  O483  1  0.51268646  0.27888162  0.91807900  1
  Cu  Cu484  1  0.66628448  0.44142828  0.82797270  1
  H  H485  1  0.56796525  0.43678083  0.90434128  1
  H  H486  1  0.54772641  0.66243104  0.22187260  1
  C  C487  1  0.55616136  0.69390383  0.26122186  1
  H  H488  1  0.62520088  0.68992775  0.23864961  1
  C  C489  1  0.59810808  0.70547084  0.28816599  1
  H  H490  1  0.67040796  0.59424492  0.36680985  1
  H  H491  1  0.53100851  0.54977305  0.28100137  1
  C  C492  1  0.71732503  0.65116824  0.12328309  1
  C  C493  1  0.52047004  0.72087380  0.31558549  1
  C  C494  1  0.54302768  0.52708454  0.19770179  1
  O  O495  1  0.70021830  0.56269624  0.16427523  1
  C  C496  1  0.72744744  0.53884213  0.45431026  1
  H  H497  1  0.61530293  0.64553495  0.46221190  1
  H  H498  1  0.72937638  0.57239104  0.44415567  1
  C  C499  1  0.65250668  0.58881040  0.47270636  1
  H  H500  1  0.73982301  0.62991336  0.17828355  1
  C  C501  1  0.51485201  0.51966972  0.07543067  1
  Cu  Cu502  1  0.70295649  0.50619981  0.17454290  1
  O  O503  1  0.67841444  0.73384918  0.34591743  1
  C  C504  1  0.72265366  0.69422194  0.11243289  1
  C  C505  1  0.68104459  0.63023993  0.06155533  1
  C  C506  1  0.67228869  0.58425391  0.08331571  1
  C  C507  1  0.58188055  0.50563327  0.20236628  1
  H  H508  1  0.60347129  0.51198729  0.29273761  1
  O  O509  1  0.64604146  0.56324568  0.02013207  1
  C  C510  1  0.60503239  0.74373666  0.36314586  1
  H  H511  1  0.50173464  0.59940383  0.13355947  1
  H  H512  1  0.74878528  0.71010994  0.16736264  1
  C  C513  1  0.69319677  0.71657497  0.01631681  1
  O  O514  1  0.66000448  0.79541581  0.43738905  1
  C  C515  1  0.65061852  0.75754149  0.38179457  1
  C  C516  1  0.72667506  0.94257233  0.17392686  1
  O  O517  1  0.72152312  0.90190875  0.14958210  1
  C  C518  1  0.73803278  0.97293200  0.06470128  1
  C  C519  1  0.54575257  0.91958902  0.27739482  1
  H  H520  1  0.57954828  0.82013201  0.06592809  1
  H  H521  1  0.50178956  0.78040745  0.43742388  1
  C  C522  1  0.52784504  0.75910641  0.39609510  1
  H  H523  1  0.60894660  0.86204631  0.14782337  1
  Cu  Cu524  1  0.70959278  0.82391784  0.41222193  1
  H  H525  1  0.57980702  0.80037346  0.46081910  1
  C  C526  1  0.56681359  0.94099937  0.15002615  1
  H  H527  1  0.58245893  0.99644497  0.03610212  1
  O  O528  1  0.52350705  0.94392615  0.38004951  1
  C  C529  1  0.61128471  0.88093282  0.04888645  1
  C  C530  1  0.59578985  0.92158757  0.04813143  1
  O  O531  1  0.54643920  0.88249162  0.29312978  1
  H  H532  1  0.63579993  0.96773843  0.29313414  1
  C  C533  1  0.62686215  0.98748055  0.38759893  1
  C  C534  1  0.56041458  0.98303423  0.12694693  1
  C  C535  1  0.71952152  0.96840560  0.30242888  1
  O  O536  1  0.71404138  0.99299244  0.39454364  1
  C  C537  1  0.57169316  0.76990405  0.40789831  1
  H  H538  1  0.53708918  0.97194641  0.36517982  1
  H  H539  1  0.52501506  0.75716167  0.09442951  1
  O  O540  1  0.63924943  0.90001307  0.47359084  1
  O  O541  1  0.61880222  0.76990343  0.01688219  1
  H  H542  1  0.59392098  0.56313970  0.85416774  1
  C  C543  1  0.61094182  0.57500229  0.75273360  1
  O  O544  1  0.55456005  0.63768900  0.84473014  1
  C  C545  1  0.57214250  0.64184761  0.72056341  1
  C  C546  1  0.64047454  0.54630006  0.70137500  1
  C  C547  1  0.60194690  0.61066397  0.66391440  1
  O  O548  1  0.55881390  0.67055850  0.63239387  1
  H  H549  1  0.63472523  0.71563162  0.87847034  1
  C  C550  1  0.65599222  0.69509621  0.94973643  1
  H  H551  1  0.62237311  0.63588159  0.93030862  1
  Cu  Cu552  1  0.50391301  0.67033475  0.54391230  1
  C  C553  1  0.64907743  0.65282119  0.98267455  1
  H  H554  1  0.64724321  0.51736781  0.76097620  1
  H  H555  1  0.70006343  0.60668376  0.73257666  1
  C  C556  1  0.66068842  0.55338317  0.56281306  1
  C  C557  1  0.73510294  0.61654245  0.74373253  1
  H  H558  1  0.73937367  0.64795866  0.79216486  1
  C  C559  1  0.62245488  0.61666420  0.52464890  1
  C  C560  1  0.69178160  0.51870007  0.52245195  1
  H  H561  1  0.52885063  0.74940177  0.89620314  1
  C  C562  1  0.60151496  0.99739786  0.64304159  1
  C  C563  1  0.58013734  0.79371583  0.99147700  1
  H  H564  1  0.59234640  0.98459995  0.75449749  1
  H  H565  1  0.65711930  0.86765200  0.70607669  1
  H  H566  1  0.60643621  0.93742173  0.94358520  1
  C  C567  1  0.62842679  0.92630041  0.55191767  1
  C  C568  1  0.69460659  0.76202238  0.98438810  1
  C  C569  1  0.61750102  0.97042976  0.53020713  1
  C  C570  1  0.63745021  0.88547696  0.78272696  1
  C  C571  1  0.74607983  0.81877822  0.93178452  1
  O  O572  1  0.61910575  0.91822234  0.73259553  1
  H  H573  1  0.58482294  0.80794565  0.88178514  1
  C  C574  1  0.66684332  0.82958207  0.94550999  1
  C  C575  1  0.70858007  0.84420846  0.91958959  1
  C  C576  1  0.65663404  0.78776325  0.98700775  1
  H  H577  1  0.70902545  0.87761286  0.88840768  1
  C  C578  1  0.63722710  0.86707345  0.92406246  1
  C  C579  1  0.73649220  0.77625897  0.96881883  1
  C  C580  1  0.53394281  0.77248382  0.99012634  1
  H  H581  1  0.74262543  0.96499513  0.94711249  1
  H  H582  1  0.51261081  0.79983919  0.96891372  1
  C  C583  1  0.82027601  0.13769414  0.36109010  1
  C  C584  1  0.78245535  0.15301266  0.42803916  1
  C  C585  1  0.83005048  0.11075171  0.24053319  1
  C  C586  1  0.90929516  0.09611547  0.26935689  1
  C  C587  1  0.78839705  0.10289985  0.17362658  1
  H  H588  1  0.91517142  0.13108142  0.27760535  1
  O  O589  1  0.86488756  0.09360115  0.18480501  1
  C  C590  1  0.88396425  0.18744047  0.38021855  1
  H  H591  1  0.87107630  0.20537046  0.28642718  1
  H  H592  1  0.89819847  0.08546902  0.37940569  1
  C  C593  1  0.94923084  0.07290151  0.21159643  1
  O  O594  1  0.80743409  0.23243466  0.14403956  1
  H  H595  1  0.97397902  0.06421083  0.29253433  1
  H  H596  1  0.94622640  0.22075097  0.37770451  1
  H  H597  1  0.93728905  0.04416376  0.16123738  1
  Cu  Cu598  1  0.75032533  0.21482419  0.16464735  1
  C  C599  1  0.92489571  0.19726773  0.43606163  1
  C  C600  1  0.86199696  0.15236704  0.43673758  1
  H  H601  1  0.96703219  0.09219323  0.12430679  1
  C  C602  1  0.78407826  0.07732721  0.03420037  1
  C  C603  1  0.82341826  0.22830667  0.01730419  1
  H  H604  1  0.98625595  0.19691604  0.01047995  1
  C  C605  1  0.91511788  0.49499447  0.09922224  1
  C  C606  1  0.96697567  0.39344770  0.21108134  1
  O  O607  1  0.97568523  0.38035672  0.09260940  1
  C  C608  1  0.94913379  0.43630328  0.23227286  1
  H  H609  1  0.94545638  0.43490724  0.46339117  1
  C  C610  1  0.87062377  0.28933429  0.04748791  1
  C  C611  1  0.91708347  0.49425981  0.38108086  1
  H  H612  1  0.83800120  0.48787277  0.29038012  1
  C  C613  1  0.93786797  0.45423683  0.36848924  1
  O  O614  1  0.96998092  0.36936626  0.33146308  1
  C  C615  1  0.75610498  0.47045943  0.38168661  1
  H  H616  1  0.90947642  0.34403350  0.02727929  1
  H  H617  1  0.77932737  0.44802861  0.32618735  1
  H  H618  1  0.85540281  0.29648002  0.15934597  1
  C  C619  1  0.93921491  0.45752169  0.09522559  1
  Cu  Cu620  1  0.99312168  0.32178275  0.31202562  1
  C  C621  1  0.79711499  0.05675307  0.70488936  1
  O  O622  1  0.81740739  0.09444828  0.79188710  1
  H  H623  1  0.93047444  0.12646625  0.72677297  1
  C  C624  1  0.81668181  0.01690979  0.73615342  1
  O  O625  1  0.81171746  0.20110891  0.92355911  1
  C  C626  1  0.91914865  0.14412127  0.62804989  1
  Cu  Cu627  1  0.75841880  0.17393238  0.93103742  1
  H  H628  1  0.85850733  0.21975393  0.75349491  1
  O  O629  1  0.77107235  0.06253983  0.61340956  1
  C  C630  1  0.98813142  0.18133626  0.60578007  1
  C  C631  1  0.94223606  0.17689740  0.55986460  1
  H  H632  1  0.76128679  0.02910267  0.87233174  1
  C  C633  1  0.80898167  0.09627370  0.92980341  1
  C  C634  1  0.84580504  0.01199508  0.85990150  1
  H  H635  1  0.78386333  0.17287063  0.52548581  1
  C  C636  1  0.88045644  0.13243673  0.56073030  1
  H  H637  1  0.86116563  0.10584360  0.60421930  1
  H  H638  1  0.97033102  0.24316375  0.79502821  1
  H  H639  1  0.83057513  0.12280172  0.96530119  1
  H  H640  1  0.85898808  0.03841978  0.92594292  1
  C  C641  1  0.87257857  0.24562636  0.81547792  1
  O  O642  1  0.75553416  0.24639780  0.50933801  1
  C  C643  1  0.75876810  0.04116520  0.98958690  1
  H  H644  1  0.94734750  0.44382153  0.98719744  1
  C  C645  1  0.91627631  0.30798418  0.82868749  1
  H  H646  1  0.91561422  0.26511180  0.63936384  1
  H  H647  1  0.77006820  0.48012251  0.63719505  1
  H  H648  1  0.90145196  0.38525317  0.77029332  1
  C  C649  1  0.75153331  0.38252290  0.56357463  1
  C  C650  1  0.90338771  0.27080211  0.75114316  1
  H  H651  1  0.77415662  0.32175877  0.63492244  1
  H  H652  1  0.97381248  0.27932853  0.95370130  1
  C  C653  1  0.79477904  0.49318512  0.71222192  1
  C  C654  1  0.78318986  0.49904966  0.86194011  1
  C  C655  1  0.98903389  0.48943404  0.75979180  1
  C  C656  1  0.95777315  0.45751519  0.74245505  1
  H  H657  1  0.89115921  0.45374447  0.71261327  1
  C  C658  1  0.85725278  0.25449922  0.95864755  1
  C  C659  1  0.96624972  0.41081677  0.73744434  1
  C  C660  1  0.91694549  0.47570989  0.72307624  1
  C  C661  1  0.95207648  0.33770720  0.78016509  1
  C  C662  1  0.93578959  0.37825012  0.75874698  1
  C  C663  1  0.75594484  0.33854155  0.55336061  1
  C  C664  1  0.99195327  0.25431949  0.88336823  1
  H  H665  1  0.76463997  0.39881101  0.66128010  1
  C  C666  1  0.99722543  0.32759233  0.77101154  1
  C  C667  1  0.90101883  0.31400361  0.97460664  1
  C  C668  1  0.87364599  0.59158640  0.24098963  1
  C  C669  1  0.83252488  0.60997403  0.28149692  1
  C  C670  1  0.79509899  0.58717059  0.31950198  1
  C  C671  1  0.82149561  0.65487829  0.29441009  1
  C  C672  1  0.83867111  0.68752107  0.19868411  1
  C  C673  1  0.87079530  0.54704921  0.25715595  1
  O  O674  1  0.90745639  0.61368366  0.20894111  1
  C  C675  1  0.94940092  0.59058410  0.20044245  1
  C  C676  1  0.79565576  0.54331309  0.32691869  1
  C  C677  1  0.83495786  0.52290652  0.29071263  1
  H  H678  1  0.76472865  0.60162617  0.34150736  1
  H  H679  1  0.94430735  0.56319796  0.11852464  1
  C  C680  1  0.82769699  0.72913540  0.21393201  1
  H  H681  1  0.85730119  0.67277131  0.10606776  1
  C  C682  1  0.79806329  0.73994485  0.32798946  1
  H  H683  1  0.94640126  0.57608283  0.31796620  1
  C  C684  1  0.79420102  0.66635601  0.41359433  1
  C  C685  1  0.90557511  0.51325452  0.24284920  1
  C  C686  1  0.75893020  0.51513255  0.38096208  1
  O  O687  1  0.97145048  0.70438809  0.35963834  1
  C  C688  1  0.78531276  0.70859232  0.43037181  1
  H  H689  1  0.79969958  0.52814795  0.07104331  1
  H  H690  1  0.91019326  0.51510751  0.00327576  1
  C  C691  1  0.99347796  0.61393547  0.18061822  1
  H  H692  1  0.98764856  0.64715814  0.21226617  1
  H  H693  1  0.90646902  0.50595507  0.49267009  1
  H  H694  1  0.78368115  0.64064240  0.48575304  1
  C  C695  1  0.97837287  0.70527927  0.49125309  1
  Cu  Cu696  1  0.76178309  0.85802107  0.20096548  1
  C  C697  1  0.95663020  0.95018796  0.27298838  1
  H  H698  1  0.91683653  0.75419272  0.38121549  1
  C  C699  1  0.88523016  0.96462636  0.36285090  1
  O  O700  1  0.81162354  0.88969133  0.17703482  1
  C  C701  1  0.92920277  0.97065917  0.37792381  1
  H  H702  1  0.84063708  0.75370368  0.14289428  1
  C  C703  1  0.93751287  0.92775855  0.13857813  1
  H  H704  1  0.92132796  0.84157727  0.40337274  1
  C  C705  1  0.78415419  0.78147967  0.33706474  1
  H  H706  1  0.87736871  0.88882238  0.08591915  1
  H  H707  1  0.98693530  0.78903797  0.39015246  1
  C  C708  1  0.98742747  0.82233971  0.34862544  1
  O  O709  1  0.80140164  0.92809604  0.37554190  1
  H  H710  1  0.87017723  0.96262761  0.00097540  1
  C  C711  1  0.89285936  0.91396934  0.15053954  1
  O  O712  1  0.76176787  0.79537184  0.44628354  1
  C  C713  1  0.87032317  0.93251229  0.26539837  1
  H  H714  1  0.95903477  0.88046995  0.31239182  1
  C  C715  1  0.82401332  0.91713797  0.27750086  1
  H  H716  1  0.94318592  0.94521874  0.02766241  1
  C  C717  1  0.95384245  0.84740366  0.35592207  1
  O  O718  1  0.97940886  0.89760927  0.07598269  1
  O  O719  1  0.79542927  0.80672607  0.23473186  1
  H  H720  1  0.94336066  0.98980251  0.46793387  1
  H  H721  1  0.86149958  0.97869496  0.43729543  1
  C  C722  1  0.93985893  0.55195342  0.70545023  1
  O  O723  1  0.93519047  0.59113642  0.67283935  1
  C  C724  1  0.88992369  0.60877787  0.62316982  1
  C  C725  1  0.98069561  0.53218215  0.74355163  1
  C  C726  1  0.88535953  0.65592382  0.58791248  1
  H  H727  1  0.88468817  0.59138468  0.51870001  1
  H  H728  1  0.86619245  0.59827357  0.70660465  1
  C  C729  1  0.86081150  0.52817808  0.74768413  1
  C  C730  1  0.90783002  0.51935796  0.71653348  1
  C  C731  1  0.94925008  0.73360436  0.57982131  1
  C  C732  1  0.84884964  0.54015828  0.89473408  1
  H  H733  1  0.98143394  0.72126219  0.78600409  1
  H  H734  1  0.99328683  0.62032411  0.78638210  1
  H  H735  1  0.85280413  0.66537274  0.53215327  1
  H  H736  1  0.83952338  0.50613942  0.52457846  1
  H  H737  1  0.88873707  0.67500553  0.69124543  1
  C  C738  1  0.95566857  0.73795798  0.73343896  1
  C  C739  1  0.76716582  0.59121661  0.71572994  1
  C  C740  1  0.80867615  0.52608610  0.95318385  1
  H  H741  1  0.76606902  0.72010978  0.52574427  1
  C  C742  1  0.83243026  0.50808093  0.64498658  1
  H  H743  1  0.80054214  0.60008235  0.75653387  1
  H  H744  1  0.76146726  0.55875444  0.67503008  1
  H  H745  1  0.87117308  0.55938463  0.96715471  1
  H  H746  1  0.91052040  0.66273692  0.50295404  1
  H  H747  1  0.76348555  0.75444969  0.98123381  1
  O  O748  1  0.91207171  0.88526958  0.75579727  1
  C  C749  1  0.82621139  0.80421311  0.86120117  1
  H  H750  1  0.79929719  0.91400401  0.62506417  1
  C  C751  1  0.91847391  0.75646977  0.50139179  1
  C  C752  1  0.83931966  0.88748989  0.83108741  1
  C  C753  1  0.94826880  0.85670555  0.73599229  1
  H  H754  1  0.93574266  0.76971249  0.93755126  1
  C  C755  1  0.87632287  0.86417681  0.79020012  1
  C  C756  1  0.89826541  0.78884499  0.74160852  1
  H  H757  1  0.87117654  0.80441539  0.52899487  1
  C  C758  1  0.83613079  0.93628875  0.81804276  1
  C  C759  1  0.79202486  0.83213453  0.88845240  1
  C  C760  1  0.86572999  0.81998397  0.80386775  1
  C  C761  1  0.80102183  0.98289860  0.64891694  1
  H  H762  1  0.98944486  0.89989848  0.58291336  1
  C  C763  1  0.81171816  0.94166321  0.68595750  1
  C  C764  1  0.89336090  0.78394632  0.58542802  1
  C  C765  1  0.92994986  0.76483161  0.81452330  1
  C  C766  1  0.85280120  0.97092462  0.90054679  1
  C  C767  1  0.99075184  0.87845327  0.69113543  1
  H  H768  1  0.95515522  0.83716593  0.83814238  1
  H  H769  1  0.94425088  0.83340757  0.64853291  1
  H  H770  1  0.81882318  0.77060754  0.87309005  1
  C  C771  1  0.79802911  0.87555090  0.87507380  1
  H  H772  1  0.78045998  0.98831563  0.55105960  1
  H  H773  1  0.77330830  0.89943698  0.90642044  1
