# generated using pymatgen
data_CuH15C22O5
_symmetry_space_group_name_H-M   'P 1'
_cell_length_a   33.73996017
_cell_length_b   30.36242468
_cell_length_c   8.65599267
_cell_angle_alpha   90.00000000
_cell_angle_beta   90.00000000
_cell_angle_gamma   90.00000000
_symmetry_Int_Tables_number   1
_chemical_formula_structural   CuH15C22O5
_chemical_formula_sum   'Cu18 H270 C396 O90'
_cell_volume   8867.43259663
_cell_formula_units_Z   18
loop_
 _symmetry_equiv_pos_site_id
 _symmetry_equiv_pos_as_xyz
  1  'x, y, z'
loop_
 _atom_site_type_symbol
 _atom_site_label
 _atom_site_symmetry_multiplicity
 _atom_site_fract_x
 _atom_site_fract_y
 _atom_site_fract_z
 _atom_site_occupancy
  H  H0  1  0.09467082  0.15107061  0.22700502  1
  C  C1  1  0.03975898  0.15474777  0.09843432  1
  O  O2  1  0.16128611  0.13345368  0.11505813  1
  Cu  Cu3  1  0.21414243  0.13239799  0.10976971  1
  H  H4  1  0.02664762  0.08018796  0.37911951  1
  H  H5  1  0.02222390  0.15952635  0.20539223  1
  C  C6  1  0.08030918  0.14843381  0.10866731  1
  H  H7  1  0.00645907  0.21496878  0.04489448  1
  C  C8  1  0.12447441  0.01207834  0.29022421  1
  C  C9  1  0.10179475  0.02240278  0.15014512  1
  H  H10  1  0.07071934  0.03985135  0.14713118  1
  C  C11  1  0.10625165  0.03371416  0.41914140  1
  C  C12  1  0.12710477  0.19317019  0.47901168  1
  C  C13  1  0.00510502  0.10613098  0.41979559  1
  C  C14  1  0.08560679  0.18728241  0.45458613  1
  H  H15  1  0.15106943  0.16847027  0.45533879  1
  C  C16  1  0.06284743  0.14965172  0.45491605  1
  H  H17  1  0.07672917  0.11698270  0.45150120  1
  C  C18  1  0.01998205  0.14764829  0.46388720  1
  O  O19  1  0.21920080  0.12350953  0.47540688  1
  H  H20  1  0.06938063  0.21956499  0.45670938  1
  H  H21  1  0.18886866  0.00970492  0.21297428  1
  O  O22  1  0.10508285  0.00992348  0.01570653  1
  O  O23  1  0.16249800  0.25072115  0.01338718  1
  H  H24  1  0.00216421  0.42616935  0.17822808  1
  C  C25  1  0.22353010  0.34708526  0.36630770  1
  C  C26  1  0.23571010  0.30101014  0.36407386  1
  H  H27  1  0.05701569  0.36484758  0.44352414  1
  O  O28  1  0.23910809  0.37480318  0.28037197  1
  C  C29  1  0.06344573  0.42550904  0.22502012  1
  H  H30  1  0.00445629  0.31046315  0.40108363  1
  Cu  Cu31  1  0.21093863  0.42437041  0.19050018  1
  Cu  Cu32  1  0.17891315  0.49776095  0.22168867  1
  H  H33  1  0.11639807  0.33101360  0.23164839  1
  C  C34  1  0.02686971  0.40542309  0.20789114  1
  O  O35  1  0.16367656  0.39542854  0.19864756  1
  C  C36  1  0.08990811  0.35045049  0.22588190  1
  H  H37  1  0.00930375  0.27854381  0.12686021  1
  C  C38  1  0.05379946  0.32959769  0.22449251  1
  C  C39  1  0.09560003  0.39605086  0.22550368  1
  C  C40  1  0.01984439  0.35806823  0.21798766  1
  H  H41  1  0.06899481  0.46186421  0.21568063  1
  C  C42  1  0.13406321  0.41832941  0.22928034  1
  H  H43  1  0.04842635  0.29334622  0.21929030  1
  O  O44  1  0.13509702  0.45969321  0.25105959  1
  O  O45  1  0.20506057  0.35836041  0.49072487  1
  C  C46  1  0.22477097  0.27517665  0.49127681  1
  O  O47  1  0.03490219  0.21879087  0.68720818  1
  H  H48  1  0.10006332  0.13290309  0.72136545  1
  H  H49  1  0.02774117  0.14178352  0.71343700  1
  C  C50  1  0.08379859  0.13609560  0.82811028  1
  C  C51  1  0.04345822  0.13972826  0.82582512  1
  O  O52  1  0.16756371  0.13380315  0.86323807  1
  Cu  Cu53  1  0.21084482  0.17018674  0.85245413  1
  H  H54  1  0.22257693  0.20862331  0.58848300  1
  C  C55  1  0.00356724  0.22007017  0.60555615  1
  C  C56  1  0.23551317  0.23067874  0.50226732  1
  O  O57  1  0.21870126  0.22831313  0.91225580  1
  C  C58  1  0.14596062  0.13284278  0.98319194  1
  C  C59  1  0.10292249  0.13944893  0.97237909  1
  C  C60  1  0.01984891  0.14947147  0.95794905  1
  H  H61  1  0.09208787  0.21766134  0.94000962  1
  H  H62  1  0.22707908  0.00051376  0.57014304  1
  H  H63  1  0.16502683  0.00875439  0.97897985  1
  H  H64  1  0.18773634  0.06650912  0.53794342  1
  C  C65  1  0.21599775  0.08433114  0.51603448  1
  O  O66  1  0.09279669  0.05112868  0.52646576  1
  C  C67  1  0.13462024  0.23671463  0.52817761  1
  H  H68  1  0.09244269  0.27762511  0.96532199  1
  H  H69  1  0.14318505  0.33420861  0.97548173  1
  C  C70  1  0.19255870  0.26015885  0.94468217  1
  C  C71  1  0.08877015  0.25020602  0.88204368  1
  C  C72  1  0.17232986  0.33926449  0.92257242  1
  H  H73  1  0.11400746  0.25328295  0.79852096  1
  H  H74  1  0.16179671  0.40279808  0.90648529  1
  H  H75  1  0.03310707  0.36005637  0.94179796  1
  C  C76  1  0.23093874  0.43989014  0.75752165  1
  O  O77  1  0.13543718  0.31644502  0.60638760  1
  C  C78  1  0.00982402  0.32200328  0.51585066  1
  Cu  Cu79  1  0.15197118  0.37389482  0.53379426  1
  H  H80  1  0.16738089  0.44442822  0.71125754  1
  H  H81  1  0.11832580  0.49490209  0.67984487  1
  H  H82  1  0.01537283  0.45282651  0.84448409  1
  C  C83  1  0.04636837  0.36386379  0.69568905  1
  H  H84  1  0.04676953  0.28718237  0.71774276  1
  H  H85  1  0.07575069  0.46589684  0.68995794  1
  C  C86  1  0.18563164  0.38069069  0.87589972  1
  O  O87  1  0.09280296  0.40277934  0.84690063  1
  H  H88  1  0.20656636  0.28903666  0.58244466  1
  C  C89  1  0.03895350  0.35336648  0.53918824  1
  C  C90  1  0.05016069  0.25697080  0.79224806  1
  C  C91  1  0.08415657  0.38949973  0.72274610  1
  C  C92  1  0.23905823  0.31651932  0.83896521  1
  C  C93  1  0.01577214  0.48193826  0.76443822  1
  C  C94  1  0.20122411  0.30768356  0.89765651  1
  C  C95  1  0.05033940  0.48996243  0.68774667  1
  C  C96  1  0.02391262  0.35212540  0.82473313  1
  H  H97  1  0.02435293  0.25884764  0.87399035  1
  C  C98  1  0.22339682  0.39531626  0.82590231  1
  O  O99  1  0.10569375  0.39905865  0.59378750  1
  C  C100  1  0.19725881  0.45898670  0.69474342  1
  C  C101  1  0.24994859  0.35934507  0.80272486  1
  C  C102  1  0.13683027  0.27550828  0.56468262  1
  C  C103  1  0.16203393  0.62386150  0.31849666  1
  C  C104  1  0.08036926  0.63230503  0.23243063  1
  C  C105  1  0.18654613  0.61895202  0.18571808  1
  H  H106  1  0.10094449  0.60959110  0.15881940  1
  H  H107  1  0.19306769  0.58796185  0.13323215  1
  C  C108  1  0.20785553  0.65428354  0.13482014  1
  C  C109  1  0.05359525  0.66258971  0.13427837  1
  C  C110  1  0.17643578  0.70323029  0.32180517  1
  C  C111  1  0.20648209  0.69581834  0.21167243  1
  C  C112  1  0.03094400  0.74026872  0.37159934  1
  O  O113  1  0.16131709  0.51988037  0.02512601  1
  H  H114  1  0.09963245  0.65455172  0.30099963  1
  O  O115  1  0.06962965  0.59617926  0.34690483  1
  C  C116  1  0.15713377  0.66574031  0.38823003  1
  C  C117  1  0.14010266  0.58599479  0.40804951  1
  C  C118  1  0.09939443  0.57816264  0.41596259  1
  H  H119  1  0.17108130  0.73704035  0.37077215  1
  H  H120  1  0.02318476  0.64792463  0.12565911  1
  C  C121  1  0.00783358  0.70050900  0.37322919  1
  O  O122  1  0.22771609  0.52538734  0.22917012  1
  H  H123  1  0.06325213  0.66430533  0.01645194  1
  C  C124  1  0.11829851  0.72800292  0.02730428  1
  H  H125  1  0.13240878  0.69682057  0.06724551  1
  C  C126  1  0.23033731  0.73308813  0.15532676  1
  H  H127  1  0.22771395  0.65198047  0.03937243  1
  H  H128  1  0.05022406  0.69718007  0.17821789  1
  H  H129  1  0.20250084  0.57838856  0.46770304  1
  C  C130  1  0.17260385  0.56519158  0.48472066  1
  C  C131  1  0.06298853  0.74209445  0.48999345  1
  O  O132  1  0.09703833  0.52160928  0.00619731  1
  H  H133  1  0.01549346  0.67193296  0.44230391  1
  H  H134  1  0.13971040  0.66849257  0.49841596  1
  C  C135  1  0.19278969  0.85034858  0.04353552  1
  H  H136  1  0.14860056  0.95558572  0.05229466  1
  O  O137  1  0.22942770  0.76977327  0.24285099  1
  C  C138  1  0.10773113  0.93691133  0.46077336  1
  O  O139  1  0.20070856  0.85330695  0.18632676  1
  C  C140  1  0.08747936  0.87331049  0.09828188  1
  C  C141  1  0.15087026  0.92573127  0.45223257  1
  H  H142  1  0.00694188  0.89753243  0.41095550  1
  C  C143  1  0.14545427  0.84768407  0.49442632  1
  C  C144  1  0.16492542  0.99292354  0.28202850  1
  H  H145  1  0.06760328  0.88836975  0.18773988  1
  H  H146  1  0.20442839  0.94308343  0.33431215  1
  H  H147  1  0.09045942  0.79497965  0.35521647  1
  C  C148  1  0.02160191  0.77379520  0.26123795  1
  C  C149  1  0.12669846  0.86645288  0.13006795  1
  C  C150  1  0.12737393  0.76730568  0.08257421  1
  C  C151  1  0.17465755  0.95494381  0.36544488  1
  H  H152  1  0.11299629  0.85202735  0.47350645  1
  C  C153  1  0.09326974  0.77170475  0.45243715  1
  H  H154  1  0.15037174  0.77226519  0.16818431  1
  H  H155  1  0.14049366  0.87041481  0.24668499  1
  H  H156  1  0.04049927  0.80377695  0.24743023  1
  H  H157  1  0.09669187  0.94923547  0.34221634  1
  H  H158  1  0.11477698  0.79682672  0.03279053  1
  H  H159  1  0.05645248  0.94990255  0.04104543  1
  C  C160  1  0.15122198  0.85438440  0.00208554  1
  C  C161  1  0.02930309  0.92782697  0.01407131  1
  C  C162  1  0.11113587  0.66109843  0.76043057  1
  C  C163  1  0.15066413  0.64660589  0.79263578  1
  C  C164  1  0.07720036  0.63461844  0.80672673  1
  H  H165  1  0.17733270  0.66643104  0.75785135  1
  H  H166  1  0.04553522  0.64386463  0.77743488  1
  C  C167  1  0.10210540  0.70200006  0.67732596  1
  H  H168  1  0.16260941  0.72684937  0.70655374  1
  C  C169  1  0.13495108  0.73021431  0.64420032  1
  O  O170  1  0.03010709  0.69608319  0.67629077  1
  C  C171  1  0.12290885  0.51979548  0.59131627  1
  C  C172  1  0.06100419  0.71237980  0.62675244  1
  C  C173  1  0.02154973  0.56121374  0.60104730  1
  C  C174  1  0.05428337  0.53113905  0.60313135  1
  C  C175  1  0.16415554  0.52777352  0.56705767  1
  C  C176  1  0.15973894  0.60650020  0.85984698  1
  C  C177  1  0.12685156  0.58279247  0.90580444  1
  C  C178  1  0.08718644  0.59538317  0.87455043  1
  H  H179  1  0.06447670  0.56964071  0.90395886  1
  C  C180  1  0.09177913  0.54252809  0.52614309  1
  C  C181  1  0.23722604  0.52481624  0.62901793  1
  H  H182  1  0.09677597  0.72321639  0.92828085  1
  C  C183  1  0.20028481  0.50293786  0.63214342  1
  C  C184  1  0.12870608  0.53945698  0.99359598  1
  H  H185  1  0.19120111  0.59519961  0.88162994  1
  H  H186  1  0.02695460  0.59470909  0.55986200  1
  H  H187  1  0.24037717  0.55998306  0.59420222  1
  C  C188  1  0.21252915  0.88128705  0.54218252  1
  H  H189  1  0.24761290  0.77999427  0.79842210  1
  O  O190  1  0.23490271  0.92149545  0.55468031  1
  H  H191  1  0.20922982  0.76484969  0.58640649  1
  H  H192  1  0.08074397  0.83312921  0.72550429  1
  C  C193  1  0.12861537  0.76663697  0.54516506  1
  H  H194  1  0.13608002  0.99027403  0.70465204  1
  H  H195  1  0.12729102  0.93347724  0.78622249  1
  H  H196  1  0.17427462  0.95807139  0.76694856  1
  C  C197  1  0.07057519  0.86529241  0.95215569  1
  C  C198  1  0.09493220  0.84492871  0.83418908  1
  O  O199  1  0.00107968  0.82100157  0.80261786  1
  H  H200  1  0.15271686  0.82568207  0.76758153  1
  C  C201  1  0.02979759  0.88300928  0.94436992  1
  C  C202  1  0.15811600  0.80362389  0.53080801  1
  C  C203  1  0.14435822  0.96589672  0.79533944  1
  C  C204  1  0.13540550  0.84058705  0.85814515  1
  C  C205  1  0.19874423  0.79889312  0.56706424  1
  O  O206  1  0.22027805  0.84005006  0.94839225  1
  C  C207  1  0.14444901  0.98226564  0.96680059  1
  C  C208  1  0.22304770  0.83704244  0.57483332  1
  O  O209  1  0.07585384  0.90249949  0.50026399  1
  H  H210  1  0.10246398  0.96517155  0.54378330  1
  H  H211  1  0.07098413  0.91083353  0.60887867  1
  C  C212  1  0.17122480  0.88471613  0.50255226  1
  H  H213  1  0.40637133  0.16965650  0.24609152  1
  C  C214  1  0.38604709  0.17926763  0.14281988  1
  H  H215  1  0.33920541  0.13466081  0.19859052  1
  C  C216  1  0.34976167  0.16080331  0.11737352  1
  C  C217  1  0.44793454  0.03850936  0.24481012  1
  C  C218  1  0.47200185  0.07655424  0.27781156  1
  O  O219  1  0.26806476  0.13263747  0.08877817  1
  H  H220  1  0.43576968  0.12798838  0.08199458  1
  C  C221  1  0.47581384  0.21491324  0.06369922  1
  H  H222  1  0.29252082  0.22456933  0.15820112  1
  C  C223  1  0.27224035  0.23922674  0.25135832  1
  C  C224  1  0.39851976  0.21103407  0.03154255  1
  O  O225  1  0.48151696  0.17496172  0.02422372  1
  H  H226  1  0.26370751  0.01292840  0.32803411  1
  C  C227  1  0.43683050  0.23636209  0.06073022  1
  H  H228  1  0.40162415  0.07782452  0.33296569  1
  C  C229  1  0.45594458  0.10949339  0.38402687  1
  H  H230  1  0.41986095  0.03179276  0.31817864  1
  C  C231  1  0.26259436  0.21394574  0.38841388  1
  C  C232  1  0.46103603  0.00966962  0.12949004  1
  C  C233  1  0.47600602  0.14677132  0.44854930  1
  C  C234  1  0.41504397  0.10446496  0.40244195  1
  C  C235  1  0.26361213  0.13295135  0.46528244  1
  C  C236  1  0.32637922  0.17273376  0.43207740  1
  H  H237  1  0.34277557  0.20439594  0.39481813  1
  C  C238  1  0.28396356  0.17006199  0.42255927  1
  C  C239  1  0.26311776  0.02247950  0.08025067  1
  H  H240  1  0.25058971  0.05554680  0.09819373  1
  H  H241  1  0.44584673  0.24769347  0.33284427  1
  C  C242  1  0.49932427  0.01422711  0.05911602  1
  C  C243  1  0.39290440  0.13468312  0.48428999  1
  C  C244  1  0.34715550  0.13595040  0.48807390  1
  C  C245  1  0.49944761  0.29217656  0.13101876  1
  H  H246  1  0.45148855  0.39264795  0.36510220  1
  H  H247  1  0.48844810  0.38508510  0.22173244  1
  C  C248  1  0.43239839  0.28098177  0.08661009  1
  O  O249  1  0.25657229  0.46007453  0.20112185  1
  C  C250  1  0.46242796  0.30101515  0.48805120  1
  H  H251  1  0.32068344  0.45556962  0.16808917  1
  C  C252  1  0.45923131  0.30497302  0.12982306  1
  C  C253  1  0.33030069  0.48976213  0.17942172  1
  H  H254  1  0.26061348  0.30101918  0.13495409  1
  C  C255  1  0.25705085  0.28147843  0.23683801  1
  H  H256  1  0.49990907  0.46032253  0.17603805  1
  H  H257  1  0.49786092  0.47511983  0.38750829  1
  H  H258  1  0.39189671  0.47724126  0.18252933  1
  C  C259  1  0.48393172  0.45520208  0.29072951  1
  C  C260  1  0.48218473  0.40601477  0.32194341  1
  O  O261  1  0.44739859  0.48710208  0.25690063  1
  C  C262  1  0.45496350  0.25757665  0.45546982  1
  H  H263  1  0.45414231  0.32721299  0.39994136  1
  H  H264  1  0.31805351  0.21646190  0.78965130  1
  H  H265  1  0.39114761  0.20047723  0.60125433  1
  H  H266  1  0.47608001  0.21044241  0.81145093  1
  H  H267  1  0.31354807  0.02280522  0.68501747  1
  C  C268  1  0.45891123  0.22538888  0.57356601  1
  C  C269  1  0.40890933  0.17350839  0.55469150  1
  H  H270  1  0.34592920  0.06558277  0.54724456  1
  O  O271  1  0.26506378  0.15584190  0.85588286  1
  H  H272  1  0.47751712  0.10979482  0.76840293  1
  C  C273  1  0.44942239  0.17880842  0.52211968  1
  C  C274  1  0.33815980  0.20373487  0.88175783  1
  C  C275  1  0.47069878  0.23690902  0.72819538  1
  C  C276  1  0.45957822  0.09932006  0.86883012  1
  H  H277  1  0.43305981  0.08199358  0.81548392  1
  C  C278  1  0.37443904  0.22355701  0.90135714  1
  H  H279  1  0.42362134  0.15773979  0.91121312  1
  C  C280  1  0.28919904  0.00079144  0.64898795  1
  C  C281  1  0.44755599  0.14008172  0.96919183  1
  C  C282  1  0.32681322  0.09541280  0.51232168  1
  C  C283  1  0.25276916  0.06294890  0.53442456  1
  C  C284  1  0.25531698  0.01872300  0.58582647  1
  C  C285  1  0.28538996  0.15238004  0.97699369  1
  C  C286  1  0.32455121  0.17268131  0.99382663  1
  C  C287  1  0.28440458  0.09429024  0.50760425  1
  H  H288  1  0.27025666  0.01206032  0.95941871  1
  H  H289  1  0.47674044  0.07418564  0.93206942  1
  H  H290  1  0.38159109  0.25107229  0.82503467  1
  H  H291  1  0.37027721  0.40467717  0.95343967  1
  H  H292  1  0.26117110  0.29079491  0.81134365  1
  H  H293  1  0.34834048  0.47084411  0.68298644  1
  H  H294  1  0.27952439  0.36663795  0.74807273  1
  H  H295  1  0.33720834  0.48057121  0.88715929  1
  O  O296  1  0.30063181  0.43526866  0.81294071  1
  H  H297  1  0.40578069  0.44433131  0.89645276  1
  C  C298  1  0.34409278  0.45454300  0.80137257  1
  H  H299  1  0.48925622  0.28840656  0.88414584  1
  C  C300  1  0.27043407  0.45626127  0.75536059  1
  C  C301  1  0.48007531  0.27958841  0.76823030  1
  H  H302  1  0.38636796  0.40204849  0.74974897  1
  C  C303  1  0.37904343  0.42469652  0.85088955  1
  C  C304  1  0.47604612  0.31117449  0.64216391  1
  O  O305  1  0.48862821  0.39426509  0.72399612  1
  C  C306  1  0.48383733  0.35665755  0.69974371  1
  C  C307  1  0.37860199  0.54882155  0.20183197  1
  C  C308  1  0.42103466  0.55903886  0.21174811  1
  C  C309  1  0.30789490  0.56743296  0.21714200  1
  C  C310  1  0.34670703  0.58108432  0.21613323  1
  H  H311  1  0.39879639  0.62464748  0.20737375  1
  C  C312  1  0.42717167  0.60472934  0.20471283  1
  C  C313  1  0.46463911  0.62380962  0.19294779  1
  C  C314  1  0.46922641  0.67244366  0.18116276  1
  C  C315  1  0.43793978  0.70350039  0.19922292  1
  H  H316  1  0.40890563  0.69373157  0.23427237  1
  H  H317  1  0.28462154  0.59297131  0.23461065  1
  H  H318  1  0.35286145  0.61754558  0.23878610  1
  C  C319  1  0.45410611  0.52840735  0.23636825  1
  C  C320  1  0.48998559  0.55045157  0.20882877  1
  C  C321  1  0.29831808  0.52099480  0.19913958  1
  H  H322  1  0.37040506  0.58213559  0.45014821  1
  O  O323  1  0.25195321  0.73213953  0.04692955  1
  C  C324  1  0.49811864  0.59439048  0.17943301  1
  C  C325  1  0.36857424  0.50221966  0.18397982  1
  H  H326  1  0.36050428  0.73368503  0.09745780  1
  H  H327  1  0.31422768  0.52715156  0.45468917  1
  C  C328  1  0.44481127  0.74777729  0.17355411  1
  C  C329  1  0.25934610  0.50312785  0.20913069  1
  H  H330  1  0.30522231  0.78975338  0.15559425  1
  C  C331  1  0.40859505  0.77774990  0.19177236  1
  O  O332  1  0.48192687  0.81004188  0.08007045  1
  C  C333  1  0.36868072  0.76742330  0.14160780  1
  C  C334  1  0.41532931  0.81796323  0.27274655  1
  H  H335  1  0.29214917  0.86138461  0.43821350  1
  C  C336  1  0.48056930  0.76872708  0.11877336  1
  H  H337  1  0.39162088  0.88539222  0.26928763  1
  Cu  Cu338  1  0.25046510  0.82230696  0.21295385  1
  C  C339  1  0.34667960  0.84022392  0.20579024  1
  O  O340  1  0.49354861  0.83768100  0.40372826  1
  C  C341  1  0.31995776  0.87978825  0.19971421  1
  H  H342  1  0.44439289  0.82696961  0.32433917  1
  C  C343  1  0.38542457  0.84909191  0.25060368  1
  H  H344  1  0.44186568  0.98163669  0.08884976  1
  O  O345  1  0.28089512  0.87472362  0.15791273  1
  O  O346  1  0.33290973  0.91449722  0.24052285  1
  C  C347  1  0.33705634  0.79605603  0.16326588  1
  C  C348  1  0.27136657  0.99993005  0.21114826  1
  H  H349  1  0.28884477  0.96961628  0.20129259  1
  H  H350  1  0.36092044  0.82950311  0.47502811  1
  Cu  Cu351  1  0.43021614  0.70577996  0.82990488  1
  O  O352  1  0.39318907  0.66312391  0.79666635  1
  C  C353  1  0.35967418  0.60065555  0.69536225  1
  C  C354  1  0.38669160  0.63801744  0.67612171  1
  C  C355  1  0.33987181  0.59170471  0.83540899  1
  C  C356  1  0.31410156  0.55489940  0.84113836  1
  O  O357  1  0.47305513  0.66800175  0.82134362  1
  C  C358  1  0.35337854  0.57625616  0.55643177  1
  C  C359  1  0.30245602  0.53374187  0.70256611  1
  C  C360  1  0.32247533  0.54598636  0.56064618  1
  H  H361  1  0.34699150  0.60945660  0.94699905  1
  H  H362  1  0.30316057  0.54482707  0.95584026  1
  O  O363  1  0.38860797  0.74709230  0.81293187  1
  O  O364  1  0.40400882  0.64306891  0.55468654  1
  C  C365  1  0.26887365  0.50022483  0.69193880  1
  C  C366  1  0.49837973  0.67476869  0.71699039  1
  H  H367  1  0.32004159  0.75048466  0.85859127  1
  C  C368  1  0.29702991  0.83478237  0.52113611  1
  Cu  Cu369  1  0.45950282  0.75415139  0.61394671  1
  O  O370  1  0.48481846  0.95401630  0.88873311  1
  C  C371  1  0.31203348  0.77296304  0.75687247  1
  C  C372  1  0.33586949  0.82091380  0.55168668  1
  C  C373  1  0.26579668  0.92269142  0.63893462  1
  C  C374  1  0.38337989  0.77328099  0.69980696  1
  C  C375  1  0.27428556  0.78803080  0.72752792  1
  C  C376  1  0.29126980  0.95573539  0.68830790  1
  O  O377  1  0.34823476  0.96775256  0.83914280  1
  C  C378  1  0.26480013  0.82015514  0.61345000  1
  O  O379  1  0.41135759  0.78191986  0.60535037  1
  Cu  Cu380  1  0.27094728  0.86400624  0.93882937  1
  O  O381  1  0.49605859  0.80366093  0.63017075  1
  C  C382  1  0.32405626  0.94403748  0.79592167  1
  C  C383  1  0.34414843  0.78999310  0.67506564  1
  H  H384  1  0.27649377  0.89032518  0.67028714  1
  H  H385  1  0.34201458  0.90211159  0.94338238  1
  O  O386  1  0.32102775  0.89671121  0.86896772  1
  O  O387  1  0.69796764  0.22098472  0.17508681  1
  Cu  Cu388  1  0.72196913  0.22072993  0.36879288  1
  C  C389  1  0.54839647  0.23666343  0.10564148  1
  C  C390  1  0.62970779  0.21056343  0.11635113  1
  C  C391  1  0.67145536  0.19887963  0.11729821  1
  O  O392  1  0.61920387  0.04258541  0.35399554  1
  C  C393  1  0.52499417  0.04965947  0.10761769  1
  H  H394  1  0.59067174  0.19102233  0.33160661  1
  C  C395  1  0.56393274  0.19930514  0.01990810  1
  C  C396  1  0.60190200  0.18544421  0.03030548  1
  O  O397  1  0.67922918  0.16260952  0.04099238  1
  H  H398  1  0.52109581  0.22033733  0.38352909  1
  H  H399  1  0.53040919  0.10693563  0.25800870  1
  C  C400  1  0.62494478  0.06448607  0.46555982  1
  H  H401  1  0.60294667  0.09249493  0.43687392  1
  O  O402  1  0.51373797  0.15096048  0.43149689  1
  C  C403  1  0.58008319  0.19925739  0.44471808  1
  C  C404  1  0.51195918  0.08008838  0.21678277  1
  C  C405  1  0.53511828  0.19751942  0.46830435  1
  C  C406  1  0.61599654  0.24873937  0.18619371  1
  C  C407  1  0.50471076  0.24681854  0.10414525  1
  H  H408  1  0.59138042  0.23265780  0.47132330  1
  H  H409  1  0.55130447  0.05713735  0.03676516  1
  H  H410  1  0.52454624  0.31479689  0.16872113  1
  C  C411  1  0.60472541  0.48967917  0.12905980  1
  O  O412  1  0.66895575  0.47634974  0.19039943  1
  C  C413  1  0.72952907  0.38773521  0.17757597  1
  O  O414  1  0.68165879  0.25735066  0.45642839  1
  C  C415  1  0.74809796  0.31064866  0.12296839  1
  O  O416  1  0.73367575  0.42198990  0.25690600  1
  O  O417  1  0.70506800  0.38148464  0.06910618  1
  H  H418  1  0.66898400  0.41197524  0.36782812  1
  C  C419  1  0.57490238  0.48604717  0.01719948  1
  H  H420  1  0.72785299  0.30631079  0.02522960  1
  C  C421  1  0.66106808  0.39112664  0.46118669  1
  C  C422  1  0.64146563  0.46613137  0.09957762  1
  H  H423  1  0.63615535  0.26953887  0.25777417  1
  C  C424  1  0.67008729  0.34661954  0.45426896  1
  C  C425  1  0.74907793  0.34752613  0.21708067  1
  H  H426  1  0.69057176  0.33331999  0.36517264  1
  C  C427  1  0.57607347  0.26160412  0.18497847  1
  H  H428  1  0.56675096  0.28758046  0.26631458  1
  Cu  Cu429  1  0.72446781  0.47812649  0.15017909  1
  H  H430  1  0.50347311  0.39919992  0.41776451  1
  C  C431  1  0.69790157  0.02059064  0.75755547  1
  O  O432  1  0.67282548  0.10651727  0.81836847  1
  H  H433  1  0.70278102  0.04843136  0.84181051  1
  Cu  Cu434  1  0.70315552  0.15621871  0.85844735  1
  C  C435  1  0.67153454  0.02384029  0.63252789  1
  O  O436  1  0.73005847  0.15261224  0.67396341  1
  H  H437  1  0.52427517  0.20773049  0.58033539  1
  C  C438  1  0.64720250  0.10198603  0.70106774  1
  O  O439  1  0.62576434  0.13131863  0.66357813  1
  C  C440  1  0.64849751  0.06139635  0.60952261  1
  H  H441  1  0.59603746  0.17625815  0.52276518  1
  O  O442  1  0.66178126  0.24986714  0.69672875  1
  H  H443  1  0.57623290  0.00839497  0.54842738  1
  H  H444  1  0.54286602  0.18085658  0.95370610  1
  H  H445  1  0.61097244  0.15513520  0.96514131  1
  C  C446  1  0.66019360  0.32112855  0.58134526  1
  C  C447  1  0.60572403  0.49157128  0.64370207  1
  H  H448  1  0.63266037  0.31931662  0.80769538  1
  O  O449  1  0.74573752  0.42670793  0.85465340  1
  H  H450  1  0.69652698  0.45446769  0.50748147  1
  C  C451  1  0.67291315  0.47602246  0.53960246  1
  C  C452  1  0.63911355  0.41146802  0.58499264  1
  Cu  Cu453  1  0.69607375  0.42879330  0.93061073  1
  C  C454  1  0.63700299  0.46036586  0.59600955  1
  C  C455  1  0.63059262  0.38229775  0.70639752  1
  C  C456  1  0.63869559  0.33842613  0.70727470  1
  O  O457  1  0.64533132  0.44070630  0.98236850  1
  H  H458  1  0.61746994  0.39532436  0.81322187  1
  O  O459  1  0.57271206  0.47956156  0.68489635  1
  H  H460  1  0.58120416  0.46616659  0.91358254  1
  C  C461  1  0.66858303  0.27237904  0.58936467  1
  H  H462  1  0.55833208  0.54854808  0.41400939  1
  H  H463  1  0.52726959  0.60654660  0.16049914  1
  H  H464  1  0.70736871  0.59585760  0.38718224  1
  C  C465  1  0.73098577  0.57092443  0.40184127  1
  H  H466  1  0.53366463  0.67111780  0.13230512  1
  C  C467  1  0.51209841  0.73583833  0.12714747  1
  C  C468  1  0.56183839  0.52885526  0.30490676  1
  H  H469  1  0.62240355  0.50417640  0.36800968  1
  C  C470  1  0.59864289  0.50969173  0.27783503  1
  C  C471  1  0.53081777  0.52836370  0.19451441  1
  C  C472  1  0.72234180  0.53212394  0.48830188  1
  C  C473  1  0.50699405  0.69090617  0.14403105  1
  C  C474  1  0.55481811  0.74389374  0.09234627  1
  C  C475  1  0.53800100  0.50463145  0.05150188  1
  H  H476  1  0.63722687  0.62492552  0.16694451  1
  C  C477  1  0.62673610  0.65319526  0.09505574  1
  H  H478  1  0.62153489  0.68597944  0.15096861  1
  H  H479  1  0.61110329  0.62225447  0.48126813  1
  H  H480  1  0.51893764  0.90165501  0.04255574  1
  C  C481  1  0.52317139  0.82792949  0.03440966  1
  H  H482  1  0.61591289  0.92123949  0.10903361  1
  H  H483  1  0.64014697  0.78752678  0.26270918  1
  H  H484  1  0.62857402  0.88966509  0.32202734  1
  H  H485  1  0.56849911  0.76351097  0.33591006  1
  Cu  Cu486  1  0.74059324  0.82937536  0.10925775  1
  H  H487  1  0.55262687  0.87786044  0.31492968  1
  H  H488  1  0.53610278  0.82506742  0.15437113  1
  C  C489  1  0.63175214  0.76666029  0.02304561  1
  C  C490  1  0.61846606  0.77143476  0.17609641  1
  C  C491  1  0.70568684  0.87160625  0.46894924  1
  O  O492  1  0.69098305  0.79851739  0.11348045  1
  C  C493  1  0.61066622  0.87286964  0.41354888  1
  C  C494  1  0.74112637  0.89848383  0.48040326  1
  H  H495  1  0.70571207  0.84304037  0.38681567  1
  C  C496  1  0.57975291  0.76062520  0.21556965  1
  H  H497  1  0.63220695  0.97733736  0.13843052  1
  C  C498  1  0.57103617  0.86359410  0.40699740  1
  C  C499  1  0.61892937  0.95518460  0.05946831  1
  H  H500  1  0.58850784  0.96874968  0.04719922  1
  C  C501  1  0.52851010  0.64114613  0.69458942  1
  C  C502  1  0.55468945  0.56961908  0.76477135  1
  H  H503  1  0.54615850  0.72724559  0.85472486  1
  C  C504  1  0.52615712  0.60203390  0.78738942  1
  H  H505  1  0.55111244  0.53778200  0.81866907  1
  C  C506  1  0.56834754  0.74149623  0.93355764  1
  C  C507  1  0.58526772  0.57487037  0.65165549  1
  C  C508  1  0.61443441  0.53865109  0.62052887  1
  O  O509  1  0.50286876  0.71248163  0.65092610  1
  C  C510  1  0.68104756  0.52170878  0.53814482  1
  C  C511  1  0.65150629  0.55340639  0.57499479  1
  H  H512  1  0.65526520  0.58970507  0.56510859  1
  C  C513  1  0.55974298  0.64764136  0.59147383  1
  C  C514  1  0.58715858  0.61505439  0.56447871  1
  H  H515  1  0.51252890  0.50249631  0.97617132  1
  H  H516  1  0.60336385  0.67410190  0.87991576  1
  H  H517  1  0.56253333  0.67875104  0.53128700  1
  H  H518  1  0.62109878  0.74899506  0.78080311  1
  H  H519  1  0.50335098  0.59668214  0.87753698  1
  C  C520  1  0.61525880  0.64630516  0.95347640  1
  H  H521  1  0.61613166  0.61404689  0.89589578  1
  H  H522  1  0.67121022  0.99747212  0.54809743  1
  H  H523  1  0.51872036  0.95971211  0.66318821  1
  C  C524  1  0.50491472  0.98472437  0.92733892  1
  C  C525  1  0.51186822  0.82733203  0.51549577  1
  O  O526  1  0.54202072  0.99437760  0.83595909  1
  C  C527  1  0.64274315  0.95490834  0.90647187  1
  C  C528  1  0.60756265  0.75245822  0.89647676  1
  H  H529  1  0.56008061  0.88132961  0.92836730  1
  H  H530  1  0.61391537  0.97452858  0.64448432  1
  H  H531  1  0.64097135  0.98716215  0.84064589  1
  H  H532  1  0.51044708  0.87891551  0.85371371  1
  C  C533  1  0.63196170  0.85992439  0.54590794  1
  C  C534  1  0.58286974  0.97506301  0.59792006  1
  H  H535  1  0.63181640  0.82925042  0.77918101  1
  H  H536  1  0.55717436  0.81110420  0.76009371  1
  C  C537  1  0.61570669  0.83631518  0.67559078  1
  H  H538  1  0.55703900  0.93187179  0.77262071  1
  Cu  Cu539  1  0.72996776  0.82350274  0.84210910  1
  C  C540  1  0.54929286  0.96390735  0.72008708  1
  H  H541  1  0.67304357  0.95066904  0.93076020  1
  C  C542  1  0.71758603  0.98005392  0.78015291  1
  C  C543  1  0.70644894  0.93940754  0.68543379  1
  O  O544  1  0.63973593  0.91812685  0.78450937  1
  C  C545  1  0.73854995  0.93369692  0.58728963  1
  C  C546  1  0.66987474  0.91369231  0.68775866  1
  C  C547  1  0.57557142  0.82758833  0.66653131  1
  C  C548  1  0.55513273  0.83858265  0.53150525  1
  H  H549  1  0.53822961  0.80486408  0.95695319  1
  O  O550  1  0.68648635  0.78874785  0.86611205  1
  C  C551  1  0.67260158  0.88267363  0.56321950  1
  C  C552  1  0.52907578  0.87437336  0.96204368  1
  C  C553  1  0.74945478  0.97459113  0.87867506  1
  H  H554  1  0.58023530  0.95130182  0.50327892  1
  C  C555  1  0.67085053  0.78469746  0.99904361  1
  C  C556  1  0.83153082  0.11420802  0.28582594  1
  C  C557  1  0.80483730  0.19327948  0.29554483  1
  C  C558  1  0.86145359  0.07926224  0.28201262  1
  C  C559  1  0.85159006  0.03788330  0.22193833  1
  C  C560  1  0.83764837  0.16158053  0.30692152  1
  C  C561  1  0.79313122  0.10192332  0.22871652  1
  H  H562  1  0.89139847  0.08486615  0.31894909  1
  C  C563  1  0.96656427  0.04522972  0.32937044  1
  C  C564  1  0.87701376  0.17043481  0.34459892  1
  C  C565  1  0.81448259  0.02959476  0.14918954  1
  H  H566  1  0.87303914  0.01041636  0.22595907  1
  C  C567  1  0.93474697  0.01392702  0.35905499  1
  H  H568  1  0.89733936  0.14415835  0.36835959  1
  C  C569  1  0.89092714  0.21359877  0.36079880  1
  O  O570  1  0.76857372  0.18769909  0.26623030  1
  H  H571  1  0.95432088  0.15989807  0.32149914  1
  O  O572  1  0.97113646  0.08642932  0.43725347  1
  C  C573  1  0.93136279  0.21862089  0.43250685  1
  C  C574  1  0.95857661  0.18395583  0.41316937  1
  H  H575  1  0.76906872  0.12674649  0.23578313  1
  C  C576  1  0.78323401  0.06189799  0.16332364  1
  O  O577  1  0.98646530  0.04346022  0.21888940  1
  H  H578  1  0.75478810  0.05907755  0.10696189  1
  C  C579  1  0.94301229  0.23160682  0.02509534  1
  C  C580  1  0.90889718  0.01568114  0.48855244  1
  C  C581  1  0.97745241  0.20424949  0.00766377  1
  C  C582  1  0.82249582  0.23554894  0.31951759  1
  H  H583  1  0.76981091  0.24399897  0.09709112  1
  C  C584  1  0.86120051  0.24645144  0.34468571  1
  H  H585  1  0.87731843  0.22559918  0.00599688  1
  C  C586  1  0.99382103  0.18677370  0.49326115  1
  H  H587  1  0.86603927  0.49975251  0.29592374  1
  H  H588  1  0.94296586  0.38654520  0.47476156  1
  H  H589  1  0.97531103  0.48393855  0.41941962  1
  H  H590  1  0.99117621  0.39952399  0.42814989  1
  H  H591  1  0.81152628  0.44413487  0.27276417  1
  O  O592  1  0.76325271  0.48086002  0.00228298  1
  H  H593  1  0.85181688  0.38035695  0.33324210  1
  C  C594  1  0.79974455  0.31588678  0.38392761  1
  H  H595  1  0.83930732  0.48323231  0.03908704  1
  C  C596  1  0.84153715  0.44742126  0.03743677  1
  C  C597  1  0.87825029  0.37716631  0.07262894  1
  C  C598  1  0.96101978  0.41166179  0.40631516  1
  H  H599  1  0.87014028  0.28087334  0.35427049  1
  C  C600  1  0.79719206  0.27677642  0.29082148  1
  C  C601  1  0.84979124  0.40703771  0.42166344  1
  H  H602  1  0.77907506  0.38146694  0.40980235  1
  C  C603  1  0.87501523  0.42408495  0.07554460  1
  C  C604  1  0.77159897  0.27439791  0.16004496  1
  C  C605  1  0.94567685  0.27869794  0.08242857  1
  H  H606  1  0.90248526  0.44397001  0.09888140  1
  C  C607  1  0.77523456  0.34991341  0.34452196  1
  O  O608  1  0.94321095  0.40658676  0.25893688  1
  C  C609  1  0.91247509  0.34794855  0.11275945  1
  C  C610  1  0.91075682  0.30406411  0.07362184  1
  C  C611  1  0.98005434  0.33985624  0.19075811  1
  C  C612  1  0.82782600  0.44426288  0.38524538  1
  C  C613  1  0.94484553  0.36604598  0.19076264  1
  C  C614  1  0.98106437  0.29644548  0.13962394  1
  C  C615  1  0.84439764  0.35199162  0.02342488  1
  H  H616  1  0.92830761  0.46824481  0.48234539  1
  H  H617  1  0.92443430  0.28935779  0.49372325  1
  H  H618  1  0.84149035  0.31556699  0.03305231  1
  C  C619  1  0.82132338  0.47694527  0.49820338  1
  H  H620  1  0.82364299  0.32091511  0.47467564  1
  C  C621  1  0.95843116  0.45802156  0.48553738  1
  H  H622  1  0.88503528  0.28928954  0.01720297  1
  C  C623  1  0.82801841  0.20078521  0.64904455  1
  C  C624  1  0.86511673  0.19286808  0.71677805  1
  C  C625  1  0.79804358  0.17143126  0.69154386  1
  C  C626  1  0.86840623  0.15922911  0.83168449  1
  C  C627  1  0.80173960  0.13352914  0.78853718  1
  C  C628  1  0.83660618  0.12881532  0.86410818  1
  C  C629  1  0.90726119  0.16733759  0.92227946  1
  H  H630  1  0.77652699  0.11127139  0.81251280  1
  O  O631  1  0.93868444  0.10117921  0.83189645  1
  C  C632  1  0.94008251  0.14026184  0.89134275  1
  C  C633  1  0.97774769  0.07192964  0.79641840  1
  H  H634  1  0.88775885  0.21627553  0.67625582  1
  C  C635  1  0.97101741  0.02279313  0.78032537  1
  H  H636  1  0.97026554  0.00842662  0.65547480  1
  H  H637  1  0.99247106  0.08179881  0.91045149  1
  H  H638  1  0.84118828  0.10083698  0.94991521  1
  C  C639  1  0.75701691  0.18065223  0.64319806  1
  H  H640  1  0.91692110  0.04017260  0.57539199  1
  H  H641  1  0.82256973  0.22804175  0.56557546  1
  C  C642  1  0.97549998  0.16233470  0.94791107  1
  C  C643  1  0.90707880  0.20922981  0.99484838  1
  H  H644  1  0.94299339  0.01268759  0.84620391  1
  O  O645  1  0.76551079  0.00135391  0.96990989  1
  O  O646  1  0.75146498  0.21427281  0.56010204  1
  H  H647  1  0.99508425  0.00536616  0.84104019  1
  H  H648  1  0.99590649  0.08406831  0.69540563  1
  H  H649  1  0.83121033  0.49849558  0.74490208  1
  H  H650  1  0.75166890  0.47702929  0.60302975  1
  C  C651  1  0.94495323  0.49923546  0.84726675  1
  C  C652  1  0.99025847  0.30414026  0.64860262  1
  C  C653  1  0.94295165  0.25844044  0.51100481  1
  C  C654  1  0.80967100  0.42352347  0.97876123  1
  C  C655  1  0.85847661  0.43523461  0.68567847  1
  C  C656  1  0.86437305  0.40277683  0.57097140  1
  Cu  Cu657  1  0.93159800  0.40706224  0.83358555  1
  H  H658  1  0.78296300  0.36545354  0.94497729  1
  H  H659  1  0.97455169  0.31163056  0.90025353  1
  C  C660  1  0.99200215  0.32374235  0.80038909  1
  H  H661  1  0.96801532  0.45992853  0.60432730  1
  H  H662  1  0.86946489  0.43353160  0.80826094  1
  O  O663  1  0.90752328  0.36166163  0.74573879  1
  C  C664  1  0.77213247  0.44562636  0.93865727  1
  C  C665  1  0.97759301  0.25872831  0.59373757  1
  O  O666  1  0.88909030  0.33591201  0.51594892  1
  C  C667  1  0.81138444  0.37773460  0.97328958  1
  C  C668  1  0.83896150  0.47409772  0.65137147  1
  O  O669  1  0.94620836  0.45960594  0.91134635  1
  C  C670  1  0.88752216  0.36329579  0.61405246  1
  O  O671  1  0.83622849  0.56275866  0.28915023  1
  C  C672  1  0.97532980  0.70008096  0.28223368  1
  H  H673  1  0.95512599  0.67039381  0.29789630  1
  C  C674  1  0.80387707  0.55015216  0.35345937  1
  C  C675  1  0.78167056  0.70146421  0.13304212  1
  C  C676  1  0.96348392  0.73567085  0.18076545  1
  C  C677  1  0.87402555  0.53333316  0.33347839  1
  C  C678  1  0.91570518  0.55040702  0.28937479  1
  C  C679  1  0.92763925  0.72904427  0.09452963  1
  O  O680  1  0.91229529  0.68990064  0.09164365  1
  H  H681  1  0.89712294  0.69981348  0.34358494  1
  H  H682  1  0.93470752  0.55809972  0.39353080  1
  C  C683  1  0.79221819  0.51413245  0.45518571  1
  H  H684  1  0.91573407  0.58136744  0.22186058  1
  C  C685  1  0.78632705  0.62156942  0.09367302  1
  C  C686  1  0.76881645  0.57630182  0.33778150  1
  C  C687  1  0.77300761  0.61962590  0.25488138  1
  C  C688  1  0.87974722  0.72299923  0.41722115  1
  C  C689  1  0.77035372  0.69748439  0.29204269  1
  C  C690  1  0.76786440  0.65595201  0.36019251  1
  C  C691  1  0.78926696  0.66434218  0.04207373  1
  H  H692  1  0.92608078  0.52089023  0.21762803  1
  H  H693  1  0.79628005  0.59276406  0.03642787  1
  H  H694  1  0.76881123  0.72771503  0.35718054  1
  H  H695  1  0.86975315  0.53429359  0.46065254  1
  C  C696  1  0.78535815  0.74792518  0.08456953  1
  H  H697  1  0.76177478  0.65546710  0.48903546  1
  O  O698  1  0.91265602  0.75926705  0.01420580  1
  H  H699  1  0.92850532  0.84906544  0.12077603  1
  C  C700  1  0.80601268  0.99054844  0.05587290  1
  O  O701  1  0.82517666  0.95916204  0.03102605  1
  H  H702  1  0.95018986  0.98615433  0.12802756  1
  C  C703  1  0.93159371  0.98298245  0.23527926  1
  H  H704  1  0.98663046  0.80141914  0.09028137  1
  O  O705  1  0.90349079  0.85654837  0.39337262  1
  C  C706  1  0.81130881  0.92639190  0.40521285  1
  H  H707  1  0.98801815  0.84231519  0.35958575  1
  C  C708  1  0.87618479  0.76787980  0.38480790  1
  C  C709  1  0.86645315  0.85043815  0.05337342  1
  C  C710  1  0.98278916  0.87137445  0.43056075  1
  O  O711  1  0.77295652  0.77897049  0.16755436  1
  O  O712  1  0.78528973  0.86075468  0.08175844  1
  C  C713  1  0.90398237  0.94990663  0.25388327  1
  C  C714  1  0.83450705  0.83929994  0.44597338  1
  C  C715  1  0.78335142  0.89219568  0.42747268  1
  C  C716  1  0.87889363  0.95150727  0.39092743  1
  H  H717  1  0.80144841  0.96237030  0.40474757  1
  H  H718  1  0.94439039  0.90059023  0.26525845  1
  H  H719  1  0.77151010  0.82079630  0.47891899  1
  C  C720  1  0.94174307  0.88956542  0.38490347  1
  H  H721  1  0.89260264  0.78412001  0.28758287  1
  C  C722  1  0.86701801  0.86951374  0.40613019  1
  C  C723  1  0.79466503  0.84767751  0.45197776  1
  C  C724  1  0.98914181  0.77237413  0.16864540  1
  H  H725  1  0.89762674  0.92356476  0.16416786  1
  H  H726  1  0.85281787  0.84552766  0.16255088  1
  H  H727  1  0.93599421  0.91928455  0.45191580  1
  C  C728  1  0.85002081  0.91284133  0.40739979  1
  C  C729  1  0.84787073  0.79220473  0.47066255  1
  C  C730  1  0.90684677  0.85379614  0.02349286  1
  H  H731  1  0.97011988  0.77726684  0.48637644  1
  C  C732  1  0.99184285  0.94350996  0.00545554  1
  H  H733  1  0.81467941  0.71548853  0.74049746  1
  O  O734  1  0.85421222  0.64521871  0.75294979  1
  H  H735  1  0.85092965  0.61523200  0.71552622  1
  C  C736  1  0.83139591  0.72993974  0.64350647  1
  O  O737  1  0.91760464  0.52378346  0.84985977  1
  H  H738  1  0.96136605  0.57444467  0.67674580  1
  H  H739  1  0.80002197  0.67026250  0.92454946  1
  Cu  Cu740  1  0.88325703  0.66931344  0.93148514  1
  C  C741  1  0.87022377  0.65982824  0.58772923  1
  C  C742  1  0.98599994  0.54971651  0.67295400  1
  C  C743  1  0.98174674  0.51109516  0.75757507  1
  C  C744  1  0.85885760  0.70519811  0.54450275  1
  O  O745  1  0.89270656  0.63678015  0.52134257  1
  H  H746  1  0.93609157  0.74526897  0.59075720  1
  C  C747  1  0.75544553  0.50355146  0.51241443  1
  H  H748  1  0.99088913  0.73898214  0.63141442  1
  H  H749  1  0.85858916  0.98284237  0.60899624  1
  Cu  Cu750  1  0.85724040  0.75484213  0.96424670  1
  C  C751  1  0.95676235  0.92953188  0.95298540  1
  H  H752  1  0.92750603  0.95072580  0.94047856  1
  H  H753  1  0.98538449  0.86222230  0.55442399  1
  C  C754  1  0.96516927  0.76463393  0.60840073  1
  H  H755  1  0.94743512  0.79162617  0.82875518  1
  C  C756  1  0.83103394  0.77499260  0.61820347  1
  O  O757  1  0.77544098  0.85873356  0.83049445  1
  H  H758  1  0.81495541  0.79726724  0.69592839  1
  C  C759  1  0.99790856  0.85990084  0.87304336  1
  H  H760  1  0.94363883  0.83012052  0.68816751  1
  H  H761  1  0.90820108  0.88675541  0.62712058  1
  H  H762  1  0.83394565  0.87618040  0.67277902  1
  C  C763  1  0.89670186  0.87607746  0.74190831  1
  C  C764  1  0.92156490  0.86575782  0.87234143  1
  C  C765  1  0.96169061  0.88416174  0.90185544  1
  C  C766  1  0.84238012  0.86047985  0.92277812  1
  C  C767  1  0.96326588  0.80359824  0.72568042  1
  H  H768  1  0.76746798  0.94217680  0.88305696  1
  C  C769  1  0.85556048  0.87040148  0.76832823  1
  O  O770  1  0.80251749  0.75277219  0.95467636  1
  H  H771  1  0.76438231  0.95518293  0.60451667  1
  C  C772  1  0.79878379  0.86020068  0.94484885  1
  C  C773  1  0.87960585  0.98442147  0.50747395  1
