# generated using pymatgen
data_CuH15C22O5
_symmetry_space_group_name_H-M   'P 1'
_cell_length_a   32.72295226
_cell_length_b   29.42218779
_cell_length_c   9.25138937
_cell_angle_alpha   90.00000000
_cell_angle_beta   90.00000000
_cell_angle_gamma   90.00000000
_symmetry_Int_Tables_number   1
_chemical_formula_structural   CuH15C22O5
_chemical_formula_sum   'Cu18 H270 C396 O90'
_cell_volume   8907.06048372
_cell_formula_units_Z   18
loop_
 _symmetry_equiv_pos_site_id
 _symmetry_equiv_pos_as_xyz
  1  'x, y, z'
loop_
 _atom_site_type_symbol
 _atom_site_label
 _atom_site_symmetry_multiplicity
 _atom_site_fract_x
 _atom_site_fract_y
 _atom_site_fract_z
 _atom_site_occupancy
  C  C0  1  0.20061524  0.12658823  0.26239721  1
  C  C1  1  0.14039733  0.19073677  0.23265352  1
  C  C2  1  0.20472484  0.16844645  0.33183459  1
  C  C3  1  0.17404472  0.20110427  0.31591824  1
  C  C4  1  0.13370509  0.14952338  0.15800371  1
  C  C5  1  0.16519229  0.11817082  0.17492766  1
  H  H6  1  0.16051559  0.08635000  0.12597892  1
  O  O7  1  0.07553339  0.21956896  0.14942206  1
  C  C8  1  0.11057808  0.22879816  0.20734710  1
  O  O9  1  0.19974884  0.01896197  0.41182300  1
  C  C10  1  0.23422659  0.04723775  0.32835684  1
  H  H11  1  0.10678587  0.14525391  0.09240033  1
  H  H12  1  0.08870731  0.20695021  0.45256654  1
  O  O13  1  0.06944248  0.08814807  0.40908003  1
  C  C14  1  0.23479744  0.09063808  0.27482002  1
  O  O15  1  0.02331296  0.00559254  0.17426796  1
  H  H16  1  0.17407541  0.23476917  0.37053907  1
  C  C17  1  0.22256848  0.01028552  0.07424628  1
  H  H18  1  0.23225138  0.17563726  0.39983969  1
  H  H19  1  0.21968888  0.04645366  0.09068216  1
  H  H20  1  0.02151916  0.04374924  0.49422986  1
  H  H21  1  0.19460709  0.00047153  0.00795195  1
  H  H22  1  0.07293639  0.00628941  0.42566063  1
  O  O23  1  0.00062505  0.37114104  0.11048403  1
  H  H24  1  0.00738850  0.42566183  0.31582592  1
  O  O25  1  0.23717305  0.43397073  0.01582485  1
  C  C26  1  0.14176075  0.46237644  0.18809059  1
  C  C27  1  0.11628679  0.38469152  0.43119770  1
  C  C28  1  0.03423905  0.35541803  0.15560892  1
  O  O29  1  0.22328859  0.43594653  0.24728333  1
  C  C30  1  0.10444633  0.47700157  0.13951841  1
  C  C31  1  0.10057928  0.42896144  0.47673836  1
  H  H32  1  0.10773875  0.32669968  0.28337344  1
  C  C33  1  0.05832756  0.43957261  0.45635232  1
  C  C34  1  0.21263598  0.44161106  0.11491214  1
  Cu  Cu35  1  0.04162293  0.26405758  0.09753493  1
  C  C36  1  0.17182155  0.45735791  0.07672132  1
  C  C37  1  0.09331370  0.35899003  0.33034152  1
  C  C38  1  0.03615684  0.41308196  0.35501210  1
  C  C39  1  0.05451320  0.37680648  0.28309587  1
  H  H40  1  0.14588238  0.37080145  0.46695875  1
  H  H41  1  0.07848389  0.47956884  0.21055625  1
  H  H42  1  0.14815216  0.45485263  0.30447641  1
  H  H43  1  0.04231797  0.27522548  0.39352616  1
  O  O44  1  0.05254806  0.32530463  0.09193523  1
  O  O45  1  0.11792727  0.26543380  0.25565214  1
  C  C46  1  0.05984471  0.27133487  0.49328019  1
  C  C47  1  0.12825181  0.20002437  0.72309019  1
  Cu  Cu48  1  0.13037660  0.10565650  0.65677802  1
  O  O49  1  0.14421047  0.20045307  0.84915638  1
  O  O50  1  0.12041796  0.04550040  0.66176479  1
  C  C51  1  0.04934239  0.13193203  0.63699306  1
  O  O52  1  0.18730775  0.09876661  0.68159538  1
  C  C53  1  0.04093095  0.15521780  0.76135238  1
  O  O54  1  0.20413762  0.12828780  0.89140983  1
  C  C55  1  0.11059451  0.02347959  0.77956868  1
  C  C56  1  0.21174050  0.10326267  0.78760286  1
  H  H57  1  0.05694164  0.18732670  0.79026827  1
  O  O58  1  0.13391713  0.16742426  0.63445447  1
  C  C59  1  0.10356358  0.23710172  0.66679920  1
  Cu  Cu60  1  0.19847957  0.19334195  0.90672692  1
  O  O61  1  0.07824154  0.03093232  0.83627652  1
  C  C62  1  0.01105666  0.14042055  0.86903441  1
  C  C63  1  0.06030501  0.10685715  0.51447315  1
  C  C64  1  0.08470273  0.23557046  0.52840866  1
  H  H65  1  0.22980502  0.03889679  0.61606198  1
  H  H66  1  0.01309045  0.15252968  0.98373831  1
  H  H67  1  0.06620165  0.43217462  0.82769348  1
  H  H68  1  0.12180922  0.47950947  0.76214868  1
  C  C69  1  0.07174947  0.30980149  0.73978909  1
  H  H70  1  0.04498432  0.46972172  0.50304072  1
  H  H71  1  0.24549506  0.28304015  0.99926447  1
  H  H72  1  0.18034252  0.41747029  0.50059382  1
  C  C73  1  0.24922510  0.41672941  0.67052154  1
  C  C74  1  0.16377299  0.45930871  0.92628528  1
  C  C75  1  0.24239559  0.46126184  0.62453589  1
  C  C76  1  0.02495086  0.37729103  0.68603187  1
  C  C77  1  0.00428620  0.45494039  0.79086682  1
  H  H78  1  0.06316545  0.33414033  0.82515028  1
  C  C79  1  0.12897658  0.46495907  0.53018161  1
  C  C80  1  0.05336570  0.30833314  0.59920759  1
  C  C81  1  0.09863179  0.27462951  0.76666781  1
  H  H82  1  0.05599200  0.37994147  0.73016638  1
  H  H83  1  0.22134609  0.39554506  0.67991646  1
  C  C84  1  0.16973502  0.45152002  0.53572397  1
  C  C85  1  0.05271760  0.49397810  0.94148461  1
  H  H86  1  0.23987693  0.36019966  0.88972870  1
  H  H87  1  0.11531333  0.27306466  0.86567206  1
  C  C88  1  0.04354944  0.45811869  0.84493289  1
  C  C89  1  0.01820605  0.33994493  0.59683643  1
  C  C90  1  0.12557081  0.47278870  0.87763746  1
  C  C91  1  0.20011554  0.48056726  0.58720956  1
  H  H92  1  0.18836470  0.45222602  0.84654579  1
  C  C93  1  0.09582148  0.48448547  0.98934019  1
  C  C94  1  0.17962316  0.68802466  0.15565167  1
  H  H95  1  0.16094736  0.59573421  0.36777166  1
  C  C96  1  0.22309599  0.69580674  0.15569897  1
  H  H97  1  0.16392246  0.68025722  0.38363747  1
  O  O98  1  0.15809796  0.64936479  0.15547134  1
  H  H99  1  0.20422521  0.60147370  0.21331502  1
  C  C100  1  0.17883003  0.60498199  0.13450802  1
  C  C101  1  0.15755814  0.72864462  0.15812218  1
  O  O102  1  0.04345742  0.55884416  0.08047197  1
  C  C103  1  0.24302590  0.73701216  0.14119939  1
  C  C104  1  0.15672397  0.55830500  0.11895528  1
  C  C105  1  0.03183644  0.62945067  0.25005564  1
  C  C106  1  0.11107162  0.72975691  0.18498797  1
  C  C107  1  0.01682901  0.60005405  0.12124861  1
  H  H108  1  0.05606400  0.65345025  0.21597203  1
  H  H109  1  0.04315767  0.60605161  0.34428879  1
  H  H110  1  0.13245250  0.55653582  0.03322588  1
  H  H111  1  0.17910543  0.53230378  0.08580557  1
  C  C112  1  0.04660658  0.72369561  0.31582644  1
  C  C113  1  0.08867518  0.72488775  0.31676620  1
  H  H114  1  0.10263373  0.71567970  0.42439683  1
  H  H115  1  0.14210292  0.54424458  0.21925300  1
  H  H116  1  0.02875130  0.72179622  0.41559574  1
  H  H117  1  0.19343934  0.61116095  0.02227466  1
  C  C118  1  0.02565252  0.73372133  0.18313161  1
  H  H119  1  0.00419532  0.64914787  0.28958393  1
  C  C120  1  0.09031956  0.73874340  0.05283273  1
  C  C121  1  0.04763132  0.74428110  0.05496924  1
  H  H122  1  0.01301029  0.62029304  0.01471380  1
  C  C123  1  0.15707515  0.66011787  0.48144678  1
  C  C124  1  0.15430046  0.61317963  0.46604433  1
  O  O125  1  0.16362059  0.74934705  0.49983618  1
  Cu  Cu126  1  0.21403351  0.76916501  0.47480083  1
  C  C127  1  0.08562231  0.89232162  0.36337231  1
  H  H128  1  0.14412742  0.91811033  0.12855030  1
  H  H129  1  0.09745330  0.97461042  0.01774988  1
  C  C130  1  0.17545141  0.77068008  0.15224645  1
  C  C131  1  0.01694000  0.90303802  0.46398989  1
  C  C132  1  0.06719513  0.96946177  0.43254004  1
  C  C133  1  0.21296734  0.85946785  0.07031146  1
  C  C134  1  0.04917215  0.87483458  0.39764122  1
  C  C135  1  0.22077323  0.98355673  0.44543911  1
  H  H136  1  0.21663873  0.99424020  0.17679988  1
  C  C137  1  0.22907402  0.90357456  0.04946841  1
  H  H138  1  0.15505209  0.79908191  0.15390088  1
  C  C139  1  0.15544828  0.93842742  0.03793474  1
  Cu  Cu140  1  0.20007201  0.85009334  0.37806418  1
  C  C141  1  0.21831255  0.77661165  0.13888770  1
  H  H142  1  0.04559552  0.83822213  0.38302509  1
  C  C143  1  0.23750744  0.82172953  0.11846324  1
  C  C144  1  0.09644897  0.93903243  0.38433855  1
  O  O145  1  0.10298806  0.82047528  0.29515986  1
  O  O146  1  0.15452141  0.86775494  0.29372531  1
  C  C147  1  0.11584888  0.85855047  0.30784912  1
  H  H148  1  0.12781577  0.94754794  0.36432304  1
  H  H149  1  0.18214869  0.85528542  0.03067760  1
  C  C150  1  0.02750246  0.95316956  0.46098727  1
  C  C151  1  0.14726199  0.65911333  0.74844504  1
  H  H152  1  0.13569783  0.59582358  0.84092174  1
  H  H153  1  0.14713280  0.67453849  0.85993344  1
  C  C154  1  0.14325623  0.61266499  0.73489433  1
  H  H155  1  0.08143730  0.57604441  0.71886331  1
  C  C156  1  0.15187262  0.68246921  0.61807857  1
  C  C157  1  0.14916619  0.53810187  0.59707176  1
  C  C158  1  0.14673019  0.58992283  0.59882744  1
  H  H159  1  0.20971318  0.64102295  0.66543990  1
  H  H160  1  0.21515805  0.54854375  0.64446224  1
  C  C161  1  0.18943443  0.52638165  0.61840034  1
  O  O162  1  0.23225453  0.70214005  0.77976978  1
  C  C163  1  0.15600107  0.73127493  0.62186775  1
  C  C164  1  0.06301052  0.57290406  0.61685934  1
  C  C165  1  0.01731884  0.58566181  0.63679797  1
  O  O166  1  0.07635967  0.52298001  0.57078166  1
  H  H167  1  0.01241907  0.61436055  0.70780421  1
  C  C168  1  0.02840491  0.71250617  0.74072909  1
  H  H169  1  0.06253428  0.71583830  0.71689825  1
  H  H170  1  0.02578769  0.69407362  0.84613963  1
  O  O171  1  0.24002986  0.63647114  0.64779888  1
  H  H172  1  0.07690486  0.59153972  0.52523694  1
  H  H173  1  0.00617965  0.59915421  0.53364239  1
  H  H174  1  0.01232907  0.68878268  0.65683951  1
  C  C175  1  0.11421409  0.51010134  0.56245285  1
  H  H176  1  0.10742130  0.74579455  0.95847240  1
  C  C177  1  0.02776288  0.52993633  0.98263462  1
  C  C178  1  0.00538661  0.75821353  0.76077744  1
  C  C179  1  0.00235814  0.83943422  0.80774894  1
  H  H180  1  0.03017117  0.75491103  0.95734411  1
  H  H181  1  0.24720625  0.90668404  0.56756427  1
  H  H182  1  0.07641324  0.83033304  0.99951610  1
  O  O183  1  0.16179620  0.75270280  0.74010305  1
  C  C184  1  0.12881920  0.97087379  0.97747958  1
  C  C185  1  0.18559589  0.85054987  0.68037685  1
  H  H186  1  0.14553856  0.80838901  0.91994093  1
  H  H187  1  0.18713182  0.99749304  0.67591939  1
  C  C188  1  0.20729403  0.95095956  0.84125118  1
  C  C189  1  0.09102791  0.85009043  0.90685668  1
  C  C190  1  0.01922982  0.88316326  0.83947120  1
  O  O191  1  0.02485969  0.80129310  0.78808121  1
  O  O192  1  0.19410668  0.87287107  0.56537090  1
  H  H193  1  0.01652393  0.95544838  0.87404685  1
  C  C194  1  0.12299048  0.89333632  0.66533827  1
  H  H195  1  0.06236756  0.93060987  0.65622582  1
  C  C196  1  0.17937262  0.98142959  0.77995473  1
  Cu  Cu197  1  0.21869507  0.76338467  0.76159714  1
  C  C198  1  0.14359915  0.85795561  0.73599768  1
  H  H199  1  0.01041494  0.88936008  0.57794163  1
  O  O200  1  0.20964118  0.82716675  0.75191712  1
  H  H201  1  0.23253328  0.93898912  0.77617238  1
  C  C202  1  0.19603659  0.93321927  0.98503465  1
  C  C203  1  0.14187757  0.99218295  0.85140434  1
  C  C204  1  0.08516857  0.90782431  0.71508701  1
  C  C205  1  0.06651847  0.88192274  0.82929464  1
  H  H206  1  0.13598324  0.90651619  0.56336534  1
  C  C207  1  0.12961685  0.83514219  0.85915315  1
  H  H208  1  0.20540411  0.95618820  0.51024294  1
  C  C209  1  0.38271189  0.18481241  0.14200309  1
  C  C210  1  0.42178674  0.16844892  0.09804514  1
  C  C211  1  0.34640425  0.16003904  0.17132957  1
  H  H212  1  0.39018855  0.05551158  0.14261197  1
  H  H213  1  0.31763687  0.17768496  0.19763840  1
  C  C214  1  0.35087908  0.11285536  0.17756249  1
  C  C215  1  0.38848843  0.09234006  0.14053514  1
  C  C216  1  0.31124380  0.08647576  0.22011513  1
  C  C217  1  0.31072321  0.04156739  0.27645592  1
  H  H218  1  0.33757816  0.01931299  0.28030221  1
  C  C219  1  0.27181034  0.10774011  0.21446366  1
  C  C220  1  0.36938494  0.23437186  0.14633147  1
  H  H221  1  0.27139063  0.13852632  0.16169284  1
  C  C222  1  0.42114356  0.11983021  0.10623360  1
  C  C223  1  0.27275050  0.02490603  0.32631213  1
  C  C224  1  0.45985983  0.09611386  0.05943070  1
  O  O225  1  0.45513061  0.18961851  0.05235508  1
  C  C226  1  0.45760211  0.24280031  0.06852554  1
  H  H227  1  0.33383374  0.16909147  0.41194911  1
  C  C228  1  0.49802563  0.11417538  0.10442595  1
  H  H229  1  0.48642403  0.18997469  0.42690266  1
  H  H230  1  0.36963857  0.23506880  0.38246146  1
  H  H231  1  0.49999724  0.14975138  0.14889930  1
  C  C232  1  0.49234041  0.15385933  0.44697907  1
  H  H233  1  0.29168076  0.02096121  0.01160557  1
  C  C234  1  0.45869522  0.12653864  0.48801483  1
  H  H235  1  0.28319628  0.14156244  0.47195150  1
  C  C236  1  0.36043742  0.25971182  0.01716698  1
  H  H237  1  0.44986612  0.25132559  0.18522946  1
  O  O238  1  0.28024500  0.49902585  0.29593229  1
  H  H239  1  0.45966017  0.45341296  0.15323117  1
  C  C240  1  0.40404205  0.49443419  0.13778731  1
  C  C241  1  0.44649518  0.48825674  0.15730532  1
  C  C242  1  0.36351037  0.25439611  0.28334640  1
  Cu  Cu243  1  0.29471294  0.44354002  0.02551534  1
  C  C244  1  0.49980514  0.26417970  0.03256100  1
  C  C245  1  0.33969832  0.29993141  0.02087697  1
  H  H246  1  0.33672553  0.31341256  0.38655788  1
  C  C247  1  0.34433933  0.29685736  0.28429492  1
  C  C248  1  0.44327496  0.32582448  0.40791958  1
  C  C249  1  0.33037969  0.31742047  0.15815516  1
  H  H250  1  0.46431318  0.39291293  0.33948403  1
  H  H251  1  0.42143732  0.32493372  0.31826235  1
  H  H252  1  0.45489501  0.29082289  0.43946798  1
  H  H253  1  0.48705035  0.45897983  0.36348817  1
  C  C254  1  0.47780797  0.35806221  0.35790523  1
  O  O255  1  0.29247836  0.37285285  0.28668240  1
  O  O256  1  0.30271538  0.38171653  0.05018924  1
  C  C257  1  0.30881821  0.36110574  0.17167256  1
  Cu  Cu258  1  0.28066330  0.43542181  0.31213541  1
  O  O259  1  0.39166444  0.41369383  0.15821377  1
  C  C260  1  0.38141415  0.44931683  0.10962238  1
  O  O261  1  0.35119181  0.45226501  0.01325990  1
  H  H262  1  0.43271661  0.25532586  0.00569031  1
  C  C263  1  0.32670093  0.04443515  0.74695392  1
  C  C264  1  0.37124937  0.03406852  0.71499429  1
  C  C265  1  0.29404522  0.02549757  0.66266960  1
  C  C266  1  0.39440675  0.06067086  0.62041687  1
  C  C267  1  0.43570723  0.04904245  0.58698109  1
  C  C268  1  0.28339424  0.09278065  0.88701068  1
  C  C269  1  0.32348680  0.07563444  0.86530374  1
  H  H270  1  0.34874495  0.08700820  0.93137742  1
  C  C271  1  0.25662669  0.04677895  0.68370839  1
  H  H272  1  0.33404324  0.11701794  0.68956794  1
  C  C273  1  0.28161156  0.21148177  0.88655413  1
  O  O274  1  0.30820117  0.18699851  0.84203973  1
  H  H275  1  0.27846007  0.11861090  0.96248619  1
  C  C276  1  0.45618653  0.01045205  0.64097644  1
  C  C277  1  0.33821545  0.11144230  0.57340146  1
  H  H278  1  0.36454734  0.24115792  0.92033773  1
  O  O279  1  0.38207088  0.10017182  0.55467669  1
  C  C280  1  0.25138133  0.08008739  0.79262926  1
  C  C281  1  0.46453749  0.07886803  0.50086474  1
  H  H282  1  0.42945372  0.14142305  0.52759111  1
  H  H283  1  0.33268198  0.24311076  0.66991062  1
  H  H284  1  0.32020954  0.08276847  0.53719768  1
  H  H285  1  0.29748099  0.00055277  0.57048884  1
  H  H286  1  0.43959056  0.24173957  0.75166222  1
  H  H287  1  0.31274576  0.18036136  0.58800289  1
  H  H288  1  0.48986582  0.00491347  0.63926387  1
  C  C289  1  0.31515552  0.15262052  0.50502591  1
  C  C290  1  0.49798569  0.02925902  0.97238416  1
  H  H291  1  0.43546888  0.03642055  0.93320768  1
  O  O292  1  0.25289126  0.19586271  0.96456289  1
  C  C293  1  0.46147114  0.05343481  0.98190549  1
  C  C294  1  0.35120558  0.49751837  0.61451777  1
  H  H295  1  0.46765824  0.48111605  0.61218309  1
  H  H296  1  0.41311461  0.26919388  0.58752039  1
  O  O297  1  0.48197336  0.49700670  0.87949362  1
  H  H298  1  0.40128724  0.44365696  0.61155401  1
  C  C299  1  0.26104018  0.29072579  0.89556130  1
  C  C300  1  0.26079692  0.33425698  0.84186709  1
  C  C301  1  0.42453856  0.27184575  0.70041112  1
  C  C302  1  0.31369315  0.46850172  0.63452432  1
  C  C303  1  0.31415353  0.31377778  0.66726849  1
  C  C304  1  0.41425562  0.30699581  0.78558031  1
  O  O305  1  0.35976654  0.39939623  0.70243078  1
  C  C306  1  0.28565181  0.25863281  0.83058409  1
  C  C307  1  0.49500176  0.46213859  0.59716082  1
  C  C308  1  0.31130230  0.26948720  0.71491029  1
  C  C309  1  0.27586180  0.49005367  0.61134475  1
  C  C310  1  0.28826644  0.34662132  0.72607172  1
  H  H311  1  0.45087612  0.38019307  0.68656863  1
  H  H312  1  0.43750045  0.38704628  0.86477255  1
  C  C313  1  0.39816402  0.42571699  0.71331572  1
  H  H314  1  0.46383224  0.43070366  0.77463395  1
  C  C315  1  0.32455872  0.42168503  0.67572606  1
  C  C316  1  0.28839315  0.39647953  0.68493820  1
  H  H317  1  0.39676274  0.33639845  0.74220539  1
  H  H318  1  0.42193396  0.30763038  0.90127599  1
  C  C319  1  0.43991598  0.40501326  0.76393650  1
  H  H320  1  0.33423713  0.32271910  0.57577288  1
  H  H321  1  0.38464647  0.45108772  0.79154636  1
  H  H322  1  0.32694473  0.31746241  0.92063572  1
  H  H323  1  0.42896702  0.34200078  0.50140579  1
  H  H324  1  0.43572844  0.63123933  0.36484222  1
  H  H325  1  0.42826742  0.53683300  0.38461973  1
  C  C326  1  0.45286927  0.57155150  0.17350180  1
  C  C327  1  0.46233704  0.64308504  0.30603666  1
  C  C328  1  0.28560007  0.52310780  0.18340622  1
  C  C329  1  0.28014135  0.57116330  0.17876507  1
  C  C330  1  0.47088860  0.52679465  0.18183864  1
  C  C331  1  0.47690875  0.61521305  0.19726817  1
  C  C332  1  0.48565000  0.68169417  0.35022396  1
  H  H333  1  0.27651301  0.73708219  0.14050677  1
  C  C334  1  0.37282981  0.50839451  0.48290065  1
  H  H335  1  0.41506405  0.67243564  0.48374590  1
  C  C336  1  0.41015037  0.57490691  0.15083490  1
  C  C337  1  0.38514784  0.53724920  0.13642605  1
  H  H338  1  0.39840240  0.61136140  0.14082272  1
  C  C339  1  0.27256697  0.59290103  0.31527066  1
  H  H340  1  0.27496939  0.57641424  0.42277476  1
  C  C341  1  0.41089649  0.52905458  0.48272947  1
  H  H342  1  0.35278171  0.54019042  0.11388000  1
  C  C343  1  0.28435564  0.59270516  0.04260719  1
  C  C344  1  0.47556988  0.70545887  0.49347694  1
  H  H345  1  0.25722143  0.65825525  0.40065563  1
  O  O346  1  0.29354152  0.50363903  0.05894595  1
  H  H347  1  0.49316057  0.74671050  0.02407249  1
  C  C348  1  0.26347928  0.63822062  0.30083021  1
  C  C349  1  0.27140799  0.63738126  0.03015235  1
  H  H350  1  0.35983849  0.50262265  0.37322793  1
  C  C351  1  0.25375155  0.65732103  0.15935313  1
  C  C352  1  0.46756001  0.77233887  0.01074466  1
  O  O353  1  0.26461479  0.79253800  0.43778517  1
  H  H354  1  0.43898780  0.76446273  0.23080302  1
  O  O355  1  0.49122083  0.90403311  0.11090944  1
  C  C356  1  0.34036959  0.88296400  0.11360625  1
  C  C357  1  0.42409221  0.88562670  0.04917536  1
  C  C358  1  0.29420609  0.87569611  0.11483147  1
  C  C359  1  0.26100520  0.97980209  0.40084050  1
  C  C360  1  0.36864089  0.90304036  0.21297751  1
  H  H361  1  0.32819690  0.87108752  0.42182110  1
  C  C362  1  0.28935175  0.94478014  0.43102338  1
  C  C363  1  0.41025366  0.90459265  0.18131002  1
  H  H364  1  0.32087452  0.94608583  0.39911974  1
  H  H365  1  0.30051900  0.80436313  0.17329898  1
  H  H366  1  0.35761663  0.91884137  0.31509825  1
  C  C367  1  0.27935395  0.83208212  0.14145044  1
  C  C368  1  0.27079926  0.91430916  0.07551096  1
  H  H369  1  0.43260905  0.92121418  0.25673075  1
  H  H370  1  0.42391221  0.81559903  0.12019063  1
  H  H371  1  0.47385169  0.81204581  0.20832838  1
  O  O372  1  0.28798588  0.95434079  0.05109300  1
  C  C373  1  0.44914057  0.79143849  0.15095522  1
  C  C374  1  0.46733647  0.88895309  0.00844180  1
  C  C375  1  0.26469317  0.99480152  0.00290491  1
  O  O376  1  0.47556732  0.58696963  0.75721954  1
  C  C377  1  0.40033627  0.54300880  0.74438048  1
  H  H378  1  0.41469894  0.55735586  0.84683153  1
  C  C379  1  0.29836553  0.68106291  0.70691151  1
  C  C380  1  0.38043050  0.69689000  0.70934334  1
  C  C381  1  0.46585194  0.56828420  0.62707693  1
  C  C382  1  0.36503793  0.65795519  0.63743332  1
  C  C383  1  0.32395455  0.64977814  0.63393874  1
  C  C384  1  0.42348221  0.71184215  0.67941949  1
  C  C385  1  0.42489663  0.54489356  0.61911772  1
  C  C386  1  0.36300848  0.51980031  0.74907917  1
  C  C387  1  0.31223358  0.72168425  0.78099200  1
  H  H388  1  0.31004599  0.62179953  0.57471292  1
  C  C389  1  0.35397746  0.72845380  0.78182941  1
  C  C390  1  0.44788447  0.73657431  0.78245760  1
  H  H391  1  0.27575111  0.52531244  0.56562626  1
  H  H392  1  0.29569069  0.57140249  0.95700119  1
  H  H393  1  0.38851369  0.63239554  0.58884198  1
  H  H394  1  0.34319105  0.51201086  0.84509397  1
  Cu  Cu395  1  0.49202290  0.55691419  0.91936611  1
  C  C396  1  0.25452086  0.67599077  0.70880933  1
  C  C397  1  0.43510436  0.69449234  0.54316748  1
  C  C398  1  0.48632617  0.74892373  0.71068934  1
  O  O399  1  0.43747798  0.74688077  0.91570068  1
  H  H400  1  0.26819108  0.65539124  0.92440869  1
  O  O401  1  0.49010682  0.56445298  0.53360087  1
  H  H402  1  0.29051022  0.74294427  0.83875891  1
  C  C403  1  0.42733369  0.98893342  0.73110474  1
  C  C404  1  0.38837047  0.99364296  0.78189583  1
  C  C405  1  0.39669018  0.86976698  0.94119085  1
  H  H406  1  0.26044763  0.99497126  0.88516428  1
  C  C407  1  0.35588221  0.86858042  0.97674623  1
  H  H408  1  0.37004450  0.97027689  0.85128218  1
  C  C409  1  0.31132745  0.82935281  0.62196080  1
  O  O410  1  0.48067461  0.88166914  0.88545486  1
  H  H411  1  0.36699902  0.75978202  0.83159660  1
  O  O412  1  0.32652694  0.81452734  0.72514260  1
  H  H413  1  0.47747913  0.80010483  0.93589350  1
  H  H414  1  0.41025215  0.85657097  0.83970942  1
  H  H415  1  0.33756911  0.85278449  0.89253655  1
  C  C416  1  0.28552398  0.82079303  0.50051432  1
  C  C417  1  0.30347235  0.86780892  0.50177523  1
  C  C418  1  0.27743838  0.90763910  0.50722587  1
  H  H419  1  0.56395142  0.10818024  0.12394989  1
  O  O420  1  0.55740911  0.21006371  0.33384600  1
  C  C421  1  0.56471633  0.16571278  0.34673215  1
  H  H422  1  0.63242234  0.20012034  0.26311162  1
  C  C423  1  0.64274973  0.21816667  0.15954439  1
  C  C424  1  0.53567920  0.09347141  0.08729396  1
  O  O425  1  0.59611568  0.14896182  0.30934457  1
  H  H426  1  0.56539036  0.07614103  0.39597532  1
  C  C427  1  0.53014652  0.13655613  0.40609015  1
  H  H428  1  0.63341563  0.08313238  0.39207002  1
  C  C429  1  0.53552688  0.08948066  0.42495736  1
  H  H430  1  0.59426636  0.00904227  0.35241336  1
  O  O431  1  0.60410798  0.03577636  0.08004855  1
  C  C432  1  0.53336821  0.04947115  0.03103603  1
  C  C433  1  0.57243632  0.02364644  0.02817325  1
  H  H434  1  0.64586162  0.15474537  0.04413670  1
  C  C435  1  0.65033162  0.19223776  0.03678053  1
  C  C436  1  0.60544955  0.01974456  0.46134852  1
  C  C437  1  0.62678653  0.06010318  0.48163366  1
  H  H438  1  0.51181652  0.02313927  0.47973655  1
  C  C439  1  0.50448776  0.06082303  0.46844368  1
  H  H440  1  0.52492903  0.24895577  0.09645085  1
  H  H441  1  0.67375241  0.32113041  0.02653807  1
  C  C442  1  0.66586029  0.28522066  0.02895748  1
  C  C443  1  0.61960740  0.42159759  0.15757743  1
  C  C444  1  0.64596844  0.29106058  0.28466567  1
  C  C445  1  0.66615497  0.49141356  0.18795373  1
  C  C446  1  0.56730865  0.36170679  0.09250353  1
  Cu  Cu447  1  0.58136338  0.25263087  0.43508657  1
  C  C448  1  0.73367808  0.44506905  0.07902307  1
  C  C449  1  0.59513530  0.43076201  0.27906951  1
  O  O450  1  0.50589930  0.34661449  0.22871760  1
  C  C451  1  0.60415191  0.38506502  0.06682054  1
  H  H452  1  0.60257547  0.45826842  0.35025816  1
  C  C453  1  0.54142354  0.42214651  0.43056818  1
  O  O454  1  0.65568311  0.33343338  0.27529269  1
  C  C455  1  0.65191829  0.26510443  0.15752194  1
  C  C456  1  0.50486853  0.44713508  0.45842478  1
  C  C457  1  0.55868693  0.40536127  0.29017649  1
  C  C458  1  0.74192747  0.48244970  0.16838739  1
  Cu  Cu459  1  0.70800739  0.35369889  0.31579353  1
  C  C460  1  0.65767665  0.44699549  0.13819376  1
  C  C461  1  0.54001901  0.37007162  0.21116980  1
  O  O462  1  0.63163759  0.27240948  0.39867531  1
  H  H463  1  0.50045958  0.36097359  0.44610123  1
  C  C464  1  0.69074553  0.43139022  0.03260062  1
  H  H465  1  0.50133611  0.30085682  0.05018747  1
  H  H466  1  0.74286475  0.34394285  0.04412083  1
  H  H467  1  0.60294331  0.27246921  0.05021847  1
  H  H468  1  0.68766883  0.39555161  0.02346469  1
  C  C469  1  0.70195317  0.11022620  0.60667868  1
  C  C470  1  0.66187019  0.11576715  0.66226566  1
  C  C471  1  0.63665061  0.07349732  0.62301531  1
  C  C472  1  0.64477966  0.15018246  0.75414902  1
  C  C473  1  0.72897894  0.14448521  0.64465569  1
  C  C474  1  0.71709851  0.17775915  0.74070522  1
  C  C475  1  0.67744976  0.17843509  0.79527496  1
  O  O476  1  0.60610437  0.15580038  0.80033457  1
  C  C477  1  0.57394311  0.12373484  0.74366346  1
  H  H478  1  0.58054273  0.12092191  0.62644265  1
  C  C479  1  0.63362348  0.04030744  0.73519384  1
  C  C480  1  0.52754903  0.13194107  0.77557243  1
  H  H481  1  0.58347055  0.09093972  0.80474168  1
  C  C482  1  0.66642186  0.21317311  0.90866448  1
  H  H483  1  0.64678172  0.05231053  0.84173731  1
  H  H484  1  0.50682672  0.10565975  0.73470297  1
  H  H485  1  0.52248371  0.13422419  0.89441067  1
  H  H486  1  0.51597576  0.16590560  0.73758711  1
  H  H487  1  0.73717342  0.20440552  0.77056162  1
  H  H488  1  0.59213985  0.22937959  0.81706864  1
  H  H489  1  0.70891236  0.08386628  0.52895426  1
  H  H490  1  0.50222347  0.32790879  0.67945684  1
  H  H491  1  0.58824104  0.37863131  0.54156967  1
  H  H492  1  0.57109119  0.41479937  0.79281471  1
  C  C493  1  0.56000629  0.32731002  0.96980839  1
  H  H494  1  0.68631358  0.49171481  0.89192642  1
  C  C495  1  0.51111082  0.46770940  0.86163909  1
  H  H496  1  0.50947588  0.25682178  0.91831869  1
  C  C497  1  0.68317772  0.45348803  0.87694912  1
  C  C498  1  0.52866097  0.34359408  0.87683902  1
  C  C499  1  0.55413311  0.42176824  0.68968821  1
  H  H500  1  0.70734021  0.39906590  0.74563593  1
  C  C501  1  0.58195283  0.28498534  0.96138021  1
  O  O502  1  0.54401382  0.25695165  0.59828500  1
  C  C503  1  0.67624160  0.26086055  0.90423822  1
  H  H504  1  0.65164557  0.45085943  0.84119859  1
  H  H505  1  0.68805198  0.27789097  0.80906111  1
  C  C506  1  0.54879961  0.27659243  0.72315529  1
  H  H507  1  0.70741388  0.45432321  0.65151168  1
  C  C508  1  0.52686514  0.31688322  0.75023211  1
  C  C509  1  0.71331260  0.43647796  0.75672153  1
  H  H510  1  0.50811809  0.37326921  0.89634009  1
  O  O511  1  0.53203596  0.45803206  0.96381663  1
  H  H512  1  0.62107602  0.37122460  0.96909407  1
  C  C513  1  0.56453591  0.40488756  0.55181877  1
  C  C514  1  0.57702149  0.26220363  0.83265153  1
  C  C515  1  0.52101268  0.45075525  0.71036497  1
  H  H516  1  0.74667134  0.44109016  0.78336754  1
  C  C517  1  0.70753869  0.55313411  0.28138360  1
  C  C518  1  0.52097840  0.69418454  0.27577388  1
  H  H519  1  0.60148623  0.70846198  0.29071846  1
  H  H520  1  0.54061272  0.72240401  0.30635602  1
  H  H521  1  0.67036514  0.71867569  0.19437228  1
  C  C522  1  0.60773929  0.69693754  0.18070647  1
  C  C523  1  0.53598592  0.66367978  0.16908055  1
  C  C524  1  0.64669995  0.70260484  0.13180962  1
  C  C525  1  0.67294968  0.57528999  0.34880558  1
  H  H526  1  0.64298367  0.55923125  0.36557837  1
  C  C527  1  0.71067943  0.64588994  0.36060610  1
  C  C528  1  0.70688126  0.50758518  0.20980216  1
  C  C529  1  0.67396428  0.62144507  0.37990186  1
  C  C530  1  0.71363036  0.69308426  0.40760393  1
  C  C531  1  0.57479393  0.67420643  0.10024907  1
  O  O532  1  0.74749750  0.71351980  0.39329109  1
  C  C533  1  0.51174296  0.62515905  0.11249013  1
  C  C534  1  0.74405022  0.57969445  0.26226210  1
  C  C535  1  0.74651604  0.62403534  0.30940207  1
  H  H536  1  0.64533048  0.63845235  0.42143641  1
  H  H537  1  0.50376198  0.52174087  0.19609632  1
  O  O538  1  0.68425332  0.71183285  0.47066279  1
  H  H539  1  0.63967234  0.51066080  0.22984288  1
  O  O540  1  0.52239177  0.60147616  0.00465223  1
  O  O541  1  0.73879178  0.87067959  0.49086439  1
  O  O542  1  0.55848797  0.93284121  0.46017498  1
  Cu  Cu543  1  0.52937248  0.94233689  0.03705352  1
  O  O544  1  0.69188781  0.69109961  0.78115486  1
  H  H545  1  0.62930694  0.66619455  0.77749694  1
  H  H546  1  0.55854813  0.64519472  0.88598298  1
  C  C547  1  0.62025991  0.67297308  0.89405016  1
  Cu  Cu548  1  0.69461432  0.74165510  0.65537621  1
  C  C549  1  0.69090271  0.69723181  0.91354505  1
  H  H550  1  0.55047362  0.73132517  0.91420357  1
  C  C551  1  0.58250204  0.66195639  0.94896630  1
  C  C552  1  0.65085065  0.69045986  0.98409642  1
  H  H553  1  0.53426806  0.74057478  0.54693609  1
  O  O554  1  0.72320993  0.71171085  0.97750735  1
  C  C555  1  0.50158538  0.73262225  0.58021948  1
  C  C556  1  0.61450737  0.99904716  0.71230829  1
  H  H557  1  0.61929241  0.75316806  0.87406821  1
  H  H558  1  0.50180309  0.83538596  0.61958924  1
  C  C559  1  0.55490523  0.76000175  0.84347120  1
  H  H560  1  0.57557049  0.85337584  0.56276141  1
  C  C561  1  0.57563148  0.94618664  0.56541323  1
  O  O562  1  0.69239127  0.93396566  0.68704190  1
  H  H563  1  0.74599477  0.92578269  0.85261561  1
  Cu  Cu564  1  0.68991991  0.88321246  0.57329480  1
  C  C565  1  0.51915545  0.77959171  0.77049089  1
  C  C566  1  0.59443458  0.77105502  0.82246901  1
  O  O567  1  0.67140868  0.79660026  0.72759447  1
  C  C568  1  0.56788281  0.82928838  0.64340628  1
  C  C569  1  0.52776146  0.81766603  0.67822598  1
  C  C570  1  0.59948025  0.80473404  0.71322385  1
  O  O571  1  0.57353757  0.92261554  0.68560536  1
  C  C572  1  0.71016568  0.97114293  0.62719837  1
  O  O573  1  0.64840172  0.84761198  0.57395417  1
  H  H574  1  0.61137300  0.97474788  0.80597791  1
  C  C575  1  0.64160369  0.81723048  0.67245247  1
  C  C576  1  0.59992694  0.98988915  0.57368254  1
  Cu  Cu577  1  0.52842442  0.90154867  0.79204484  1
  H  H578  1  0.50133141  0.99649904  0.91399925  1
  O  O579  1  0.56601839  0.98269049  0.96462519  1
  O  O580  1  0.69577030  0.99036727  0.52470869  1
  C  C581  1  0.87037694  0.06390508  0.30004316  1
  C  C582  1  0.83125528  0.08011290  0.33499429  1
  C  C583  1  0.79852651  0.05125703  0.26008575  1
  H  H584  1  0.92806188  0.10040900  0.17635260  1
  C  C585  1  0.95116276  0.11353759  0.09246106  1
  H  H586  1  0.89685473  0.07120886  0.36730226  1
  O  O587  1  0.76230973  0.04848355  0.26171501  1
  O  O588  1  0.96967475  0.14475171  0.14819683  1
  H  H589  1  0.76043891  0.09485933  0.41749599  1
  H  H590  1  0.79791241  0.13407974  0.10008614  1
  C  C591  1  0.82631003  0.11237442  0.44823503  1
  H  H592  1  0.97237357  0.15746790  0.35318830  1
  H  H593  1  0.95914230  0.23437512  0.21119533  1
  C  C594  1  0.93006845  0.24486863  0.26366735  1
  C  C595  1  0.91212992  0.00337129  0.18971524  1
  H  H596  1  0.91937679  0.21320167  0.32623984  1
  H  H597  1  0.80902999  0.02626401  0.17195254  1
  C  C598  1  0.87690659  0.03009799  0.19209367  1
  C  C599  1  0.78448743  0.11290222  0.48128786  1
  H  H600  1  0.85402619  0.02042208  0.10913624  1
  O  O601  1  0.89639045  0.13403146  0.47560209  1
  C  C602  1  0.97647089  0.15766411  0.47642071  1
  H  H603  1  0.99809623  0.18577924  0.49967417  1
  H  H604  1  0.97351071  0.49091151  0.43849657  1
  O  O605  1  0.78607613  0.49766716  0.20267163  1
  H  H606  1  0.85261335  0.49697838  0.44953412  1
  H  H607  1  0.80949640  0.30568237  0.02578565  1
  C  C608  1  0.77073782  0.36661285  0.03117982  1
  C  C609  1  0.88772649  0.36336481  0.36953290  1
  C  C610  1  0.93581562  0.28624030  0.36016477  1
  H  H611  1  0.90907906  0.25104249  0.16946645  1
  O  O612  1  0.88480330  0.30648159  0.04123852  1
  C  C613  1  0.80761017  0.34343911  0.01553112  1
  O  O614  1  0.75868238  0.37206307  0.34586430  1
  C  C615  1  0.82149450  0.37101116  0.49520286  1
  H  H616  1  0.86960896  0.49616857  0.26594455  1
  C  C617  1  0.77483186  0.37469974  0.47248781  1
  C  C618  1  0.80578535  0.46945548  0.29616168  1
  H  H619  1  0.83044947  0.36742214  0.26516202  1
  H  H620  1  0.91206681  0.29220437  0.44063891  1
  H  H621  1  0.90605320  0.36367405  0.27217876  1
  H  H622  1  0.93763809  0.31432597  0.28288772  1
  C  C623  1  0.76909207  0.41620570  0.03547323  1
  C  C624  1  0.84453808  0.36613287  0.36913346  1
  O  O625  1  0.97824322  0.29636838  0.44048970  1
  H  H626  1  0.86597168  0.44327867  0.36886087  1
  H  H627  1  0.78474813  0.46668202  0.39481950  1
  H  H628  1  0.80213302  0.43734208  0.23360323  1
  C  C629  1  0.85067455  0.47720290  0.35107934  1
  C  C630  1  0.84435580  0.37023971  0.01070565  1
  C  C631  1  0.88366486  0.34631158  0.01164901  1
  O  O632  1  0.91717719  0.37094992  0.00255127  1
  C  C633  1  0.84223706  0.17011331  0.61744055  1
  C  C634  1  0.80080961  0.17571092  0.65057903  1
  C  C635  1  0.87389725  0.19827065  0.70073356  1
  H  H636  1  0.93380116  0.14749395  0.65731072  1
  H  H637  1  0.78893651  0.20387725  0.71550229  1
  C  C638  1  0.89566179  0.17756968  0.81677578  1
  H  H639  1  0.88492982  0.14035936  0.83855039  1
  C  C640  1  0.77301879  0.14450840  0.59025235  1
  C  C641  1  0.92968629  0.19517269  0.88531008  1
  H  H642  1  0.82492447  0.05980673  0.64332206  1
  C  C643  1  0.80986762  0.02891642  0.68818433  1
  H  H644  1  0.88712451  0.03381812  0.57581303  1
  C  C645  1  0.77199297  0.01799087  0.62529170  1
  C  C646  1  0.95322718  0.03483615  0.54384445  1
  C  C647  1  0.95450446  0.01458084  0.87909767  1
  C  C648  1  0.91488449  0.01428042  0.55027838  1
  H  H649  1  0.76166115  0.03558484  0.52870348  1
  C  C650  1  0.87138699  0.00855444  0.84973236  1
  H  H651  1  0.82220262  0.09606633  0.78952962  1
  C  C652  1  0.99240467  0.02288629  0.51277660  1
  C  C653  1  0.93272738  0.15971112  0.54067396  1
  C  C654  1  0.92915447  0.04997066  0.91259454  1
  C  C655  1  0.88629465  0.05179890  0.90398503  1
  H  H656  1  0.98811977  0.02167422  0.87771175  1
  C  C657  1  0.95371908  0.09152131  0.94952084  1
  H  H658  1  0.94696128  0.17737448  0.97009668  1
  H  H659  1  0.98070331  0.09362386  0.72718299  1
  C  C660  1  0.98127214  0.10842881  0.83933384  1
  H  H661  1  0.80645668  0.06153808  0.94198924  1
  C  C662  1  0.81932955  0.09554736  0.91137528  1
  O  O663  1  0.86764010  0.08865657  0.94198831  1
  C  C664  1  0.88606124  0.24421962  0.65903920  1
  C  C665  1  0.79856544  0.13737113  0.98034791  1
  H  H666  1  0.76509049  0.14079525  0.94770162  1
  H  H667  1  0.81272499  0.17001516  0.95239916  1
  C  C668  1  0.85908098  0.13785090  0.51825353  1
  C  C669  1  0.82832246  0.00196283  0.79847360  1
  C  C670  1  0.94296096  0.23638403  0.83047870  1
  O  O671  1  0.99672811  0.24031017  0.99776242  1
  H  H672  1  0.98974644  0.12346425  0.50457931  1
  H  H673  1  0.92637794  0.19716419  0.54244714  1
  H  H674  1  0.80505344  0.47794912  0.97923611  1
  C  C675  1  0.84315347  0.41750196  0.98711847  1
  H  H676  1  0.93303733  0.43129301  0.63250810  1
  O  O677  1  0.98484599  0.30020813  0.85538284  1
  C  C678  1  0.80621972  0.44051161  0.99346112  1
  C  C679  1  0.98033182  0.33343127  0.51624266  1
  H  H680  1  0.87105736  0.26389017  0.57336077  1
  H  H681  1  0.81990817  0.37871593  0.73689416  1
  C  C682  1  0.97593205  0.49005560  0.82585407  1
  C  C683  1  0.95043832  0.36704134  0.54882959  1
  Cu  Cu684  1  0.97082537  0.35616693  0.93997745  1
  C  C685  1  0.92028640  0.26178844  0.72051176  1
  H  H686  1  0.87294184  0.43660670  0.96820843  1
  C  C687  1  0.83860782  0.37543938  0.63127246  1
  C  C688  1  0.95684782  0.40664420  0.62988675  1
  H  H689  1  0.93057368  0.29643438  0.68866459  1
  C  C690  1  0.99604770  0.41291132  0.69818759  1
  H  H691  1  0.94459391  0.48729659  0.78595674  1
  C  C692  1  0.97698545  0.25875950  0.89878808  1
  C  C693  1  0.87982033  0.37329750  0.63002198  1
  O  O694  1  0.75396328  0.37923805  0.57944888  1
  H  H695  1  0.89601110  0.37855168  0.73778210  1
  O  O696  1  0.87191867  0.49083459  0.69259418  1
  C  C697  1  0.90550245  0.36419244  0.50992924  1
  H  H698  1  0.77358280  0.64587133  0.29026225  1
  H  H699  1  0.87660817  0.56543168  0.21940655  1
  C  C700  1  0.89143658  0.56918789  0.11319313  1
  O  O701  1  0.82438312  0.62558031  0.17546477  1
  C  C702  1  0.92767465  0.54678361  0.08114714  1
  H  H703  1  0.94114967  0.52239387  0.15564475  1
  H  H704  1  0.77265845  0.56762414  0.21175388  1
  C  C705  1  0.83943122  0.62864327  0.05639101  1
  H  H706  1  0.98771206  0.58097542  0.14163572  1
  C  C707  1  0.87635502  0.60225321  0.01833056  1
  H  H708  1  0.93224707  0.58439382  0.37988358  1
  C  C709  1  0.96713754  0.52517685  0.37857624  1
  H  H710  1  0.99170049  0.53636677  0.30323320  1
  H  H711  1  0.91290379  0.53583244  0.49899559  1
  C  C712  1  0.93500135  0.55050104  0.41832351  1
  O  O713  1  0.96257721  0.71027000  0.31543300  1
  C  C714  1  0.98071264  0.73110702  0.17292230  1
  O  O715  1  0.95917948  0.74226344  0.07839107  1
  H  H716  1  0.93497952  0.71422666  0.28982151  1
  H  H717  1  0.91834492  0.80650014  0.01410575  1
  C  C718  1  0.84018270  0.95710160  0.47037342  1
  H  H719  1  0.77506251  0.94179132  0.44711378  1
  H  H720  1  0.83895991  0.99186317  0.43084779  1
  C  C721  1  0.80607237  0.93022424  0.47251795  1
  C  C722  1  0.98895877  0.99668065  0.18433516  1
  C  C723  1  0.94799094  0.97815139  0.19085565  1
  H  H724  1  0.94485998  0.94072845  0.18221473  1
  O  O725  1  0.96482083  0.90145861  0.46826595  1
  H  H726  1  0.85077667  0.76486313  0.00700782  1
  C  C727  1  0.98902910  0.97416272  0.49618574  1
  C  C728  1  0.95494739  0.94318499  0.49693853  1
  O  O729  1  0.80159710  0.72953640  0.63677777  1
  C  C730  1  0.93198630  0.58561098  0.85396516  1
  H  H731  1  0.94596736  0.59056975  0.74782853  1
  H  H732  1  0.88433800  0.63228703  0.80150690  1
  O  O733  1  0.79422774  0.73622323  0.87920778  1
  C  C734  1  0.89682278  0.60962167  0.88587661  1
  C  C735  1  0.81523437  0.73925739  0.75951367  1
  C  C736  1  0.98778582  0.52583543  0.91948001  1
  C  C737  1  0.95096555  0.55628127  0.95492485  1
  Cu  Cu738  1  0.77529249  0.68518276  0.97246008  1
  O  O739  1  0.82574641  0.65705114  0.95883714  1
  C  C740  1  0.84947056  0.51228515  0.73945676  1
  H  H741  1  0.86980073  0.74909527  0.54341069  1
  H  H742  1  0.99489189  0.55648207  0.66990055  1
  C  C743  1  0.84664999  0.86596062  0.58943991  1
  C  C744  1  0.85670639  0.75684575  0.77264728  1
  C  C745  1  0.91547099  0.96528379  0.51121620  1
  H  H746  1  0.81706211  0.95032835  0.95764319  1
  C  C747  1  0.95691565  0.92636684  0.82949210  1
  H  H748  1  0.99195724  0.77025958  0.65568608  1
  C  C749  1  0.91508830  0.79019582  0.64169014  1
  C  C750  1  0.87899774  0.93620329  0.50848896  1
  C  C751  1  0.93700819  0.88440498  0.81804527  1
  C  C752  1  0.75009356  0.98153200  0.68936222  1
  H  H753  1  0.90222328  0.88616372  0.81002470  1
  H  H754  1  0.98010112  0.75312923  0.84885285  1
  C  C755  1  0.92896506  0.80657920  0.78107315  1
  C  C756  1  0.77286486  0.85893091  0.54089865  1
  C  C757  1  0.87041634  0.77140233  0.90931187  1
  H  H758  1  0.93212788  0.79467357  0.53314851  1
  C  C759  1  0.88034915  0.89185259  0.56580184  1
  C  C760  1  0.89432837  0.96954894  0.81951246  1
  C  C761  1  0.93679728  0.97234533  0.83857360  1
  C  C762  1  0.80959898  0.88591374  0.53974430  1
  C  C763  1  0.95965814  0.84425737  0.79943353  1
  H  H764  1  0.84821613  0.83239844  0.64009372  1
  C  C765  1  0.99942864  0.92414202  0.85373709  1
  C  C766  1  0.76442619  0.95541858  0.81034979  1
  H  H767  1  0.90793052  0.87550515  0.60982517  1
  C  C768  1  0.88009343  0.76498226  0.64369247  1
  C  C769  1  0.90665024  0.79550969  0.90810656  1
  Cu  Cu770  1  0.76217047  0.76140519  0.51651004  1
  O  O771  1  0.77393061  0.81911450  0.60089398  1
  C  C772  1  0.80363925  0.96593230  0.85634877  1
  H  H773  1  0.87853496  0.93777728  0.78843524  1
