# generated using pymatgen
data_CuH15C22O5
_symmetry_space_group_name_H-M   'P 1'
_cell_length_a   31.77142584
_cell_length_b   31.32324134
_cell_length_c   9.04809610
_cell_angle_alpha   90.00000000
_cell_angle_beta   90.00000000
_cell_angle_gamma   90.00000000
_symmetry_Int_Tables_number   1
_chemical_formula_structural   CuH15C22O5
_chemical_formula_sum   'Cu18 H270 C396 O90'
_cell_volume   9004.52082975
_cell_formula_units_Z   18
loop_
 _symmetry_equiv_pos_site_id
 _symmetry_equiv_pos_as_xyz
  1  'x, y, z'
loop_
 _atom_site_type_symbol
 _atom_site_label
 _atom_site_symmetry_multiplicity
 _atom_site_fract_x
 _atom_site_fract_y
 _atom_site_fract_z
 _atom_site_occupancy
  Cu  Cu0  1  0.17514009  0.09650223  0.25266486  1
  C  C1  1  0.05479408  0.17468120  0.33032721  1
  C  C2  1  0.07063602  0.10147583  0.38183925  1
  H  H3  1  0.06118058  0.20873226  0.30215079  1
  C  C4  1  0.08333737  0.14451603  0.37162239  1
  H  H5  1  0.11677341  0.15309121  0.37409894  1
  C  C6  1  0.21206633  0.21437219  0.17757469  1
  O  O7  1  0.17683128  0.14632428  0.16696916  1
  C  C8  1  0.18787807  0.17959482  0.25019426  1
  C  C9  1  0.02828930  0.08860981  0.36577531  1
  O  O10  1  0.18273896  0.17992528  0.37988170  1
  H  H11  1  0.06775442  0.06431054  0.12863990  1
  H  H12  1  0.10238191  0.13039916  0.07769544  1
  C  C13  1  0.21826662  0.21195386  0.02423068  1
  O  O14  1  0.22614151  0.07220782  0.24609797  1
  H  H15  1  0.02148681  0.05384030  0.37304168  1
  C  C16  1  0.10637644  0.06975466  0.40306439  1
  O  O17  1  0.09913229  0.03216307  0.40182757  1
  O  O18  1  0.14294923  0.08698825  0.42199265  1
  H  H19  1  0.10611760  0.20864929  0.08151273  1
  C  C20  1  0.01177893  0.16189005  0.29681908  1
  H  H21  1  0.21899406  0.24440583  0.39121406  1
  H  H22  1  0.01284238  0.24090806  0.35639574  1
  C  C23  1  0.24617429  0.06479909  0.11603050  1
  O  O24  1  0.24221000  0.03174838  0.05391182  1
  C  C25  1  0.22814890  0.24591799  0.27244284  1
  H  H26  1  0.02693142  0.19132930  0.09661537  1
  C  C27  1  0.07894634  0.06933427  0.01318447  1
  C  C28  1  0.03878873  0.21892008  0.02479619  1
  H  H29  1  0.03172001  0.25103567  0.08072955  1
  C  C30  1  0.03108929  0.46575797  0.28370223  1
  H  H31  1  0.19057134  0.30917397  0.22650715  1
  H  H32  1  0.14357425  0.48368395  0.00604714  1
  C  C33  1  0.12944223  0.41913695  0.23342556  1
  H  H34  1  0.07374783  0.41231851  0.09539095  1
  C  C35  1  0.19188495  0.41996479  0.39826321  1
  H  H36  1  0.12589368  0.35303252  0.05683691  1
  H  H37  1  0.12196728  0.33055759  0.23987986  1
  O  O38  1  0.20734923  0.35910539  0.05757660  1
  C  C39  1  0.14921991  0.40488009  0.36414413  1
  H  H40  1  0.03937144  0.45438809  0.17304392  1
  H  H41  1  0.05141308  0.45033104  0.37069684  1
  C  C42  1  0.18037822  0.31688424  0.11902941  1
  C  C43  1  0.00957273  0.33252943  0.24880963  1
  C  C44  1  0.12628075  0.37677431  0.45425157  1
  H  H45  1  0.11377870  0.29705277  0.07470758  1
  H  H46  1  0.03647625  0.31089507  0.23129992  1
  C  C47  1  0.13264159  0.32310847  0.12320793  1
  H  H48  1  0.14680633  0.44026478  0.15923960  1
  C  C49  1  0.01613075  0.37580199  0.28547210  1
  C  C50  1  0.08385446  0.36664552  0.43851944  1
  C  C51  1  0.06306595  0.38389869  0.31136272  1
  C  C52  1  0.08816936  0.40726177  0.20686211  1
  O  O53  1  0.20868659  0.44145158  0.29533066  1
  H  H54  1  0.19031587  0.28912191  0.04494270  1
  C  C55  1  0.19152634  0.19147065  0.68629817  1
  C  C56  1  0.13868044  0.15408920  0.81240349  1
  C  C57  1  0.04265559  0.13729363  0.71126785  1
  C  C58  1  0.15400318  0.19429985  0.77184718  1
  H  H59  1  0.12516533  0.08787655  0.76322387  1
  C  C60  1  0.12344069  0.11403539  0.84591485  1
  H  H61  1  0.09133702  0.18397377  0.91041167  1
  H  H62  1  0.19857142  0.15809427  0.65978363  1
  C  C63  1  0.06462653  0.02274498  0.77395365  1
  C  C64  1  0.07152880  0.04503285  0.88634653  1
  H  H65  1  0.04610293  0.12108464  0.60499389  1
  C  C66  1  0.21621463  0.22591532  0.63834106  1
  H  H67  1  0.04250455  0.11156830  0.79779132  1
  H  H68  1  0.07131035  0.15659489  0.71330682  1
  C  C69  1  0.14014094  0.23950749  0.81348973  1
  C  C70  1  0.08409165  0.20903206  0.98760211  1
  H  H71  1  0.08957495  0.02265211  0.68515479  1
  O  O72  1  0.10980110  0.24756200  0.89799794  1
  H  H73  1  0.02066877  0.21525684  0.91524066  1
  O  O74  1  0.00370407  0.00480268  0.61123408  1
  C  C75  1  0.10270511  0.10646530  0.98550423  1
  H  H76  1  0.20977581  0.18383824  0.96731435  1
  C  C77  1  0.24262400  0.24377769  0.95501458  1
  C  C78  1  0.00128760  0.16267857  0.69940043  1
  C  C79  1  0.01892293  0.00254578  0.73304335  1
  C  C80  1  0.15694671  0.39490570  0.77034320  1
  H  H81  1  0.17727004  0.41331313  0.99084226  1
  H  H82  1  0.08509410  0.29481452  0.77248905  1
  C  C83  1  0.19859237  0.26735045  0.66508010  1
  C  C84  1  0.24397481  0.35632791  0.98896461  1
  O  O85  1  0.21361380  0.41230139  0.50790453  1
  H  H86  1  0.18039503  0.42092961  0.75762159  1
  C  C87  1  0.19806117  0.44163396  0.98737985  1
  C  C88  1  0.14911354  0.31800933  0.76996898  1
  C  C89  1  0.17870504  0.48108940  0.98635385  1
  C  C90  1  0.17556021  0.35520768  0.76236688  1
  C  C91  1  0.24169777  0.43605688  0.95818280  1
  H  H92  1  0.21011582  0.35243866  0.75366090  1
  O  O93  1  0.05383311  0.44650333  0.78677315  1
  C  C94  1  0.10489122  0.32620329  0.77814756  1
  C  C95  1  0.16443669  0.27278987  0.75192658  1
  Cu  Cu96  1  0.01041382  0.45118830  0.63701093  1
  C  C97  1  0.09373382  0.44411352  0.77709542  1
  H  H98  1  0.21556812  0.29569320  0.64238516  1
  C  C99  1  0.11306679  0.40224811  0.78178358  1
  O  O100  1  0.11538713  0.47816896  0.76731144  1
  C  C101  1  0.08726021  0.36658480  0.78566267  1
  H  H102  1  0.13893434  0.36367747  0.56174975  1
  H  H103  1  0.05300775  0.37214131  0.78024574  1
  H  H104  1  0.06841112  0.34602633  0.52046597  1
  C  C105  1  0.20814629  0.61222741  0.32353732  1
  C  C106  1  0.20678835  0.65576214  0.33491844  1
  H  H107  1  0.22104122  0.59664113  0.22516693  1
  H  H108  1  0.22205749  0.67652537  0.24875104  1
  H  H109  1  0.12999923  0.68120835  0.30640393  1
  H  H110  1  0.04741543  0.69137618  0.24446117  1
  O  O111  1  0.21504727  0.52643920  0.31383809  1
  C  C112  1  0.19397808  0.54080758  0.42316586  1
  C  C113  1  0.19004897  0.58686087  0.43828556  1
  C  C114  1  0.10316255  0.68088991  0.39013414  1
  C  C115  1  0.06162279  0.66587730  0.31702315  1
  H  H116  1  0.06591010  0.63715701  0.24388941  1
  H  H117  1  0.02403741  0.53145391  0.36863519  1
  H  H118  1  0.03013835  0.52595542  0.16334671  1
  C  C119  1  0.04152397  0.51449603  0.27506033  1
  H  H120  1  0.07658952  0.51986515  0.28903535  1
  C  C121  1  0.18583771  0.67210618  0.46481051  1
  C  C122  1  0.18392249  0.72106042  0.47879362  1
  H  H123  1  0.03712910  0.66042434  0.40281303  1
  O  O124  1  0.10726932  0.72622844  0.41664109  1
  C  C125  1  0.14487366  0.74156246  0.45177598  1
  H  H126  1  0.11044807  0.66428249  0.49863615  1
  H  H127  1  0.01237213  0.74327002  0.36028178  1
  O  O128  1  0.22712899  0.68616913  0.01508656  1
  H  H129  1  0.24436509  0.87854470  0.14268958  1
  H  H130  1  0.08627764  0.78463654  0.06469621  1
  C  C131  1  0.10444234  0.86968346  0.21013220  1
  C  C132  1  0.01940301  0.77003998  0.06689044  1
  H  H133  1  0.18888487  0.84420921  0.49052837  1
  C  C134  1  0.06111147  0.76093016  0.04128747  1
  C  C135  1  0.07802740  0.82704822  0.47979513  1
  H  H136  1  0.15989718  0.82921397  0.22258189  1
  H  H137  1  0.01387351  0.80350454  0.10862278  1
  C  C138  1  0.12906774  0.83824774  0.27280360  1
  C  C139  1  0.05693951  0.86336454  0.43210986  1
  O  O140  1  0.22939112  0.82464248  0.03221752  1
  C  C141  1  0.04473751  0.92017244  0.24417037  1
  C  C142  1  0.15243914  0.78717136  0.45774801  1
  C  C143  1  0.18882384  0.80812787  0.49542426  1
  O  O144  1  0.05961125  0.94321890  0.13364676  1
  O  O145  1  0.01233527  0.92906837  0.30252460  1
  C  C146  1  0.07014334  0.88309629  0.29798510  1
  H  H147  1  0.11567045  0.88673727  0.10815345  1
  C  C148  1  0.11633977  0.81510548  0.40363247  1
  H  H149  1  0.02635493  0.87536815  0.48140767  1
  Cu  Cu150  1  0.09899191  0.52999001  0.82675252  1
  O  O151  1  0.04659360  0.55032277  0.78437821  1
  H  H152  1  0.15575663  0.66068425  0.68298235  1
  H  H153  1  0.16166027  0.58157276  0.66217326  1
  C  C154  1  0.01588121  0.53490073  0.71024337  1
  H  H155  1  0.05010519  0.65344876  0.94061304  1
  O  O156  1  0.12497250  0.67115819  0.91484485  1
  C  C157  1  0.17146598  0.64635264  0.58437772  1
  O  O158  1  0.22214680  0.73566202  0.84932810  1
  C  C159  1  0.17441008  0.60180511  0.57492406  1
  O  O160  1  0.19947040  0.59420122  0.93140009  1
  Cu  Cu161  1  0.21598613  0.51381394  0.70793794  1
  C  C162  1  0.11510148  0.70771792  0.96117720  1
  C  C163  1  0.20271290  0.51853330  0.96277264  1
  O  O164  1  0.13984263  0.55632908  0.94063336  1
  C  C165  1  0.17910051  0.55844909  0.94045374  1
  C  C166  1  0.04109124  0.68595771  0.98403391  1
  Cu  Cu167  1  0.18186697  0.65367063  0.95590311  1
  O  O168  1  0.02280709  0.50851102  0.60668624  1
  O  O169  1  0.18256623  0.51748889  0.52911676  1
  C  C170  1  0.24289020  0.71965309  0.95598237  1
  O  O171  1  0.14310609  0.73600691  0.98172287  1
  H  H172  1  0.24797139  0.71700089  0.53913897  1
  C  C173  1  0.24740347  0.51582981  0.95833595  1
  C  C174  1  0.07136221  0.71896731  0.99952828  1
  C  C175  1  0.22054257  0.73961752  0.51984742  1
  H  H176  1  0.00676054  0.80112207  0.82607517  1
  H  H177  1  0.24384338  0.88244624  0.77080405  1
  C  C178  1  0.24531549  0.94128454  0.85290662  1
  C  C179  1  0.19925636  0.88786209  0.91368074  1
  C  C180  1  0.03955837  0.88322973  0.83474671  1
  Cu  Cu181  1  0.17153299  0.76896633  0.85985314  1
  C  C182  1  0.22572085  0.78425204  0.52388478  1
  O  O183  1  0.04843449  0.92516946  0.84175887  1
  O  O184  1  0.17162475  0.82632478  0.85257376  1
  C  C185  1  0.20422244  0.93113657  0.90506912  1
  H  H186  1  0.06941342  0.81002132  0.57939314  1
  O  O187  1  0.06227708  0.85787662  0.89404105  1
  H  H188  1  0.23833091  0.86869722  0.60267764  1
  C  C189  1  0.19774018  0.85036447  0.92485874  1
  C  C190  1  0.00200344  0.86838375  0.74971863  1
  H  H191  1  0.18104217  0.95629980  0.94525203  1
  Cu  Cu192  1  0.02759462  0.96471474  0.98698703  1
  C  C193  1  0.27849737  0.13869069  0.12237126  1
  C  C194  1  0.30461533  0.17040223  0.06552676  1
  H  H195  1  0.31035404  0.20146364  0.11389586  1
  C  C196  1  0.38802233  0.13296238  0.11315420  1
  H  H197  1  0.36871609  0.15890436  0.16051497  1
  C  C198  1  0.39747916  0.09948020  0.23491240  1
  H  H199  1  0.36951525  0.09435449  0.30872641  1
  C  C200  1  0.27407145  0.09902734  0.05362556  1
  O  O201  1  0.41871210  0.15703124  0.03084106  1
  H  H202  1  0.36737350  0.11380534  0.03502528  1
  H  H203  1  0.41916780  0.11285632  0.31879770  1
  H  H204  1  0.41106565  0.06681806  0.19120760  1
  H  H205  1  0.25886679  0.14749897  0.22097290  1
  H  H206  1  0.45177735  0.21016818  0.20669761  1
  C  C207  1  0.45483563  0.23009768  0.30330457  1
  C  C208  1  0.41209465  0.24121762  0.36943178  1
  O  O209  1  0.38227723  0.20434808  0.40784628  1
  C  C210  1  0.34437940  0.21218184  0.45394245  1
  H  H211  1  0.47408562  0.21120454  0.38132154  1
  H  H212  1  0.27579599  0.10393687  0.46576960  1
  C  C213  1  0.31917322  0.17667321  0.49798260  1
  C  C214  1  0.32114219  0.25148671  0.45521969  1
  H  H215  1  0.39220848  0.26024882  0.29132806  1
  C  C216  1  0.31795525  0.42742053  0.25972413  1
  C  C217  1  0.25638167  0.27911491  0.04868180  1
  C  C218  1  0.25053974  0.27841831  0.20325991  1
  Cu  Cu219  1  0.25207510  0.48373164  0.32377224  1
  C  C220  1  0.47114906  0.46418597  0.30138450  1
  H  H221  1  0.45073223  0.34657865  0.17273164  1
  H  H222  1  0.39971800  0.39801298  0.14262331  1
  C  C223  1  0.46052919  0.33972800  0.28571525  1
  C  C224  1  0.43723471  0.43445156  0.29038197  1
  O  O225  1  0.32930217  0.43653750  0.13676703  1
  C  C226  1  0.47609266  0.48159628  0.45146731  1
  C  C227  1  0.49291541  0.47934036  0.17931893  1
  C  C228  1  0.31921844  0.37240999  0.45702276  1
  H  H229  1  0.26329683  0.30583527  0.26810455  1
  C  C230  1  0.42718665  0.41929958  0.15560480  1
  H  H231  1  0.40256408  0.35348539  0.41123814  1
  C  C232  1  0.43651977  0.34342088  0.41308751  1
  C  C233  1  0.33144124  0.29596011  0.39812617  1
  C  C234  1  0.33595882  0.35021555  0.20455683  1
  H  H235  1  0.42070041  0.42450440  0.39041706  1
  H  H236  1  0.41172482  0.25866679  0.48396945  1
  C  C237  1  0.33921962  0.30844711  0.25001701  1
  C  C238  1  0.32421173  0.38211306  0.30681019  1
  C  C239  1  0.44899606  0.43172146  0.02356911  1
  H  H240  1  0.33995225  0.36062681  0.08672319  1
  H  H241  1  0.34698028  0.28308331  0.16034099  1
  C  C242  1  0.48368779  0.46099534  0.04356463  1
  O  O243  1  0.30176979  0.45362353  0.35192101  1
  H  H244  1  0.47051377  0.26017802  0.27151129  1
  H  H245  1  0.26530560  0.15278261  0.59987887  1
  C  C246  1  0.36222538  0.05172358  0.60153456  1
  C  C247  1  0.25898921  0.22068493  0.57097558  1
  C  C248  1  0.39269760  0.08481516  0.59445168  1
  H  H249  1  0.42559767  0.07796915  0.61653222  1
  H  H250  1  0.34072031  0.11083743  0.75293655  1
  C  C251  1  0.27820590  0.18094639  0.55270128  1
  C  C252  1  0.37938392  0.12550851  0.56563930  1
  H  H253  1  0.40180004  0.15300276  0.56514692  1
  C  C254  1  0.37153590  0.01146922  0.67973191  1
  C  C255  1  0.32010129  0.05778280  0.55408999  1
  H  H256  1  0.29709352  0.03163053  0.54956921  1
  C  C257  1  0.33726177  0.13284940  0.51364823  1
  C  C258  1  0.30744291  0.09795359  0.50576549  1
  H  H259  1  0.25439567  0.24356965  0.83845827  1
  C  C260  1  0.34599000  0.22789791  0.79760266  1
  H  H261  1  0.31383896  0.23054995  0.75144626  1
  C  C262  1  0.47866780  0.21583103  0.90759241  1
  C  C263  1  0.43314676  0.21814736  0.88089645  1
  C  C264  1  0.32143255  0.12217539  0.85352961  1
  C  C265  1  0.36224319  0.19316137  0.88998404  1
  C  C266  1  0.40375800  0.18782242  0.93859965  1
  H  H267  1  0.29502226  0.05980763  0.87693369  1
  H  H268  1  0.47922890  0.14589308  0.92129219  1
  C  C269  1  0.49889433  0.17505667  0.93030247  1
  C  C270  1  0.29536933  0.09197820  0.91927764  1
  C  C271  1  0.32773732  0.16225432  0.93246520  1
  H  H272  1  0.49673613  0.42341814  0.67607814  1
  Cu  Cu273  1  0.25354429  0.44889019  0.57887708  1
  C  C274  1  0.37988695  0.25511604  0.77375907  1
  C  C275  1  0.31953442  0.32952281  0.50131285  1
  C  C276  1  0.42132680  0.25700070  0.79970361  1
  C  C277  1  0.27006922  0.31907548  0.96927102  1
  C  C278  1  0.32624653  0.35694000  0.85341545  1
  C  C279  1  0.39631612  0.34565407  0.70959139  1
  C  C280  1  0.39004223  0.40111064  0.90655019  1
  H  H281  1  0.44364503  0.28193975  0.76024189  1
  H  H282  1  0.49757114  0.28407030  0.89153424  1
  C  C283  1  0.28048805  0.25625348  0.51158804  1
  H  H284  1  0.31232073  0.32485608  0.61977568  1
  H  H285  1  0.38201074  0.32238683  0.62982073  1
  H  H286  1  0.31975165  0.42596792  0.85833234  1
  O  O287  1  0.29791167  0.48049893  0.66737313  1
  H  H288  1  0.26597001  0.28755013  0.50012356  1
  C  C289  1  0.26440791  0.47554939  0.95017643  1
  H  H290  1  0.33169795  0.29112691  0.92961147  1
  C  C291  1  0.45760652  0.34066025  0.55270380  1
  C  C292  1  0.30418858  0.39622144  0.86838591  1
  O  O293  1  0.45029398  0.47000970  0.53859369  1
  C  C294  1  0.26370448  0.39398668  0.93393439  1
  C  C295  1  0.46213974  0.38885094  0.78168826  1
  C  C296  1  0.43368944  0.41036795  0.88306751  1
  H  H297  1  0.29916689  0.47315671  0.95231785  1
  H  H298  1  0.31282596  0.39755845  0.54014698  1
  C  C299  1  0.43748974  0.35848697  0.68879252  1
  C  C300  1  0.31052425  0.31864036  0.91191692  1
  C  C301  1  0.37248201  0.36704227  0.82184185  1
  H  H302  1  0.37054000  0.48585721  0.76947435  1
  C  C303  1  0.49993695  0.32263890  0.57107670  1
  H  H304  1  0.36974360  0.41767048  0.98602961  1
  H  H305  1  0.36230844  0.73007465  0.25144165  1
  H  H306  1  0.29165161  0.69876769  0.20946016  1
  C  C307  1  0.34573594  0.73978538  0.15498485  1
  C  C308  1  0.42129459  0.55496257  0.18525766  1
  C  C309  1  0.30698812  0.72097968  0.12990522  1
  C  C310  1  0.38286794  0.54833950  0.13496650  1
  H  H311  1  0.44505346  0.57344374  0.12494298  1
  H  H312  1  0.42994775  0.54317704  0.29519280  1
  H  H313  1  0.35945598  0.52782859  0.19425142  1
  C  C314  1  0.28360589  0.73595677  0.00413862  1
  C  C315  1  0.42372451  0.73472182  0.02017236  1
  H  H316  1  0.39722682  0.71219547  0.00661121  1
  H  H317  1  0.37561234  0.56097474  0.02694192  1
  C  C318  1  0.37956390  0.86340266  0.09228728  1
  H  H319  1  0.27973472  0.86132914  0.00110536  1
  C  C320  1  0.41124526  0.77764512  0.04878662  1
  C  C321  1  0.36502718  0.77216170  0.06085766  1
  C  C322  1  0.43728334  0.81420366  0.05803312  1
  C  C323  1  0.26038613  0.84885188  0.09556884  1
  H  H324  1  0.31133588  0.80570600  0.15958441  1
  C  C325  1  0.28778101  0.82521294  0.21856699  1
  H  H326  1  0.46606253  0.75678596  0.28789811  1
  C  C327  1  0.44481819  0.75543393  0.38599621  1
  H  H328  1  0.30695751  0.75088971  0.48367909  1
  C  C329  1  0.36767716  0.91198819  0.09079772  1
  O  O330  1  0.42695196  0.85360583  0.07495003  1
  H  H331  1  0.37511475  0.84521779  0.19965524  1
  H  H332  1  0.26671155  0.80436472  0.28178602  1
  H  H333  1  0.38712401  0.93018015  0.16889648  1
  H  H334  1  0.39761326  0.80066654  0.30786307  1
  C  C335  1  0.40671023  0.77794763  0.39999649  1
  H  H336  1  0.30438382  0.84556396  0.29879475  1
  C  C337  1  0.48051930  0.79841632  0.03458136  1
  H  H338  1  0.49595733  0.87041953  0.18861293  1
  H  H339  1  0.33555947  0.91955585  0.12688792  1
  C  C340  1  0.49575535  0.75713626  0.01117024  1
  C  C341  1  0.43985122  0.64924195  0.92850348  1
  H  H342  1  0.37044543  0.64366258  0.78677772  1
  H  H343  1  0.30541899  0.60689921  0.71567310  1
  C  C344  1  0.36968566  0.60891799  0.78318208  1
  C  C345  1  0.44701778  0.61060644  0.86110864  1
  C  C346  1  0.40822360  0.58611609  0.81525744  1
  C  C347  1  0.33290061  0.58912352  0.74294023  1
  C  C348  1  0.40717173  0.54132252  0.81636829  1
  H  H349  1  0.44688384  0.71213685  0.73473791  1
  C  C350  1  0.33411490  0.54378140  0.73399301  1
  O  O351  1  0.26399494  0.54182526  0.64857620  1
  C  C352  1  0.47347445  0.67786080  0.95469586  1
  C  C353  1  0.48706650  0.59314007  0.81513805  1
  C  C354  1  0.43527956  0.73326012  0.64907342  1
  C  C355  1  0.29707748  0.52134214  0.67787072  1
  C  C356  1  0.37067539  0.52109656  0.77676589  1
  H  H357  1  0.43462663  0.52243274  0.85161889  1
  H  H358  1  0.40777549  0.66043898  0.94596026  1
  Cu  Cu359  1  0.49932635  0.56444849  0.55161162  1
  C  C360  1  0.46609954  0.72325324  0.99964554  1
  H  H361  1  0.26681488  0.54390244  0.96109878  1
  O  O362  1  0.49034165  0.55933354  0.74225952  1
  C  C363  1  0.45828373  0.73634186  0.51426571  1
  C  C364  1  0.26522573  0.90967355  0.76751776  1
  C  C365  1  0.42524237  0.84936779  0.66933460  1
  H  H366  1  0.42005094  0.82046488  0.74170240  1
  O  O367  1  0.32857736  0.98520031  0.71042852  1
  H  H368  1  0.49184638  0.86697007  0.70964175  1
  H  H369  1  0.36146942  0.94188505  0.61949634  1
  H  H370  1  0.37943317  0.75368351  0.76109520  1
  O  O371  1  0.40396166  0.99863358  0.71940506  1
  H  H372  1  0.37150106  0.92490803  0.97766949  1
  C  C373  1  0.38173025  0.77489631  0.52962638  1
  C  C374  1  0.26663691  0.80633549  0.55057733  1
  C  C375  1  0.39665224  0.75279525  0.65975921  1
  C  C376  1  0.30703813  0.86696757  0.61748961  1
  C  C377  1  0.34342519  0.80309078  0.56026811  1
  C  C378  1  0.30334695  0.91022639  0.68472093  1
  H  H379  1  0.45618978  0.91279599  0.70395776  1
  H  H380  1  0.43558113  0.83794134  0.55623041  1
  H  H381  1  0.36576967  0.84603151  0.99768243  1
  C  C382  1  0.30009762  0.76835298  0.91166392  1
  C  C383  1  0.30530343  0.78369248  0.52834052  1
  C  C384  1  0.46010721  0.87753227  0.73839659  1
  H  H385  1  0.35215412  0.81060031  0.85570452  1
  C  C386  1  0.26769870  0.85054553  0.58485203  1
  H  H387  1  0.26128252  0.97256311  0.87009234  1
  O  O388  1  0.38045402  0.86961239  0.64651414  1
  C  C389  1  0.34733894  0.84731532  0.60679142  1
  C  C390  1  0.33964757  0.78725427  0.93880556  1
  H  H391  1  0.28203623  0.77970420  0.81100864  1
  H  H392  1  0.45827073  0.87704453  0.86623860  1
  C  C393  1  0.32902745  0.94688846  0.67429275  1
  C  C394  1  0.67907792  0.14680739  0.27780820  1
  C  C395  1  0.72285871  0.14165391  0.29541501  1
  C  C396  1  0.67864773  0.08032219  0.15267012  1
  C  C397  1  0.72203378  0.07241306  0.17324481  1
  H  H398  1  0.66561382  0.17657222  0.31391783  1
  C  C399  1  0.65664925  0.11451330  0.20784419  1
  H  H400  1  0.62050766  0.11625096  0.19461136  1
  H  H401  1  0.73733531  0.04397854  0.12847519  1
  C  C402  1  0.72753289  0.22483472  0.30174032  1
  C  C403  1  0.74424076  0.10281009  0.24792134  1
  C  C404  1  0.74402583  0.18338357  0.33192691  1
  C  C405  1  0.65150646  0.05058448  0.06501995  1
  O  O406  1  0.69442071  0.23233504  0.22968429  1
  O  O407  1  0.61475062  0.05631149  0.05518463  1
  Cu  Cu408  1  0.69194950  0.22709020  0.03411196  1
  H  H409  1  0.59105621  0.00674812  0.40389005  1
  H  H410  1  0.50006890  0.35959100  0.06244922  1
  H  H411  1  0.55509026  0.30792753  0.45373020  1
  C  C412  1  0.50279553  0.32848992  0.30491585  1
  H  H413  1  0.73651165  0.38851466  0.13940072  1
  C  C414  1  0.73383725  0.37618440  0.02603123  1
  C  C415  1  0.70500064  0.38219493  0.41339634  1
  O  O416  1  0.71387605  0.45658565  0.46178344  1
  C  C417  1  0.74973933  0.37783170  0.40079340  1
  C  C418  1  0.68668674  0.42521868  0.45202251  1
  H  H419  1  0.61233437  0.47826482  0.23160494  1
  C  C420  1  0.52193277  0.31741998  0.44321357  1
  C  C421  1  0.73790065  0.30357942  0.35605814  1
  C  C422  1  0.67569116  0.35034724  0.38439302  1
  C  C423  1  0.69251316  0.30958061  0.36796686  1
  C  C424  1  0.53173491  0.32111704  0.17544728  1
  O  O425  1  0.56670478  0.30779172  0.19885508  1
  H  H426  1  0.66976410  0.28328730  0.35000942  1
  O  O427  1  0.51896316  0.33559528  0.03106241  1
  H  H428  1  0.64231050  0.35786394  0.37727574  1
  H  H429  1  0.57088493  0.39169224  0.07251585  1
  O  O430  1  0.64977719  0.43283993  0.46061964  1
  H  H431  1  0.65352092  0.38628834  0.03604356  1
  C  C432  1  0.65794134  0.12183643  0.64942176  1
  C  C433  1  0.66262592  0.15983183  0.63906995  1
  C  C434  1  0.70649670  0.06736333  0.62695783  1
  C  C435  1  0.66450831  0.07827532  0.65324971  1
  C  C436  1  0.71339365  0.02337601  0.61271629  1
  H  H437  1  0.63983582  0.05363769  0.66346190  1
  O  O438  1  0.67698169  0.19597033  0.62036984  1
  H  H439  1  0.73021910  0.09081178  0.60038585  1
  O  O440  1  0.73779449  0.13674107  0.92076775  1
  Cu  Cu441  1  0.73553837  0.20370551  0.60192098  1
  C  C442  1  0.54142007  0.17217022  0.94107960  1
  H  H443  1  0.55623237  0.14070109  0.96308239  1
  O  O444  1  0.74125157  0.24339975  0.93584080  1
  Cu  Cu445  1  0.68321894  0.15171326  0.95212745  1
  C  C446  1  0.56910309  0.20813716  0.93795526  1
  C  C447  1  0.55092931  0.24880021  0.91713575  1
  H  H448  1  0.68694678  0.00163768  0.63051482  1
  C  C449  1  0.61437473  0.20300564  0.95884807  1
  O  O450  1  0.62732168  0.16562081  0.97614337  1
  O  O451  1  0.63986261  0.23450446  0.95135196  1
  O  O452  1  0.66974424  0.02193680  0.97801207  1
  H  H453  1  0.59472096  0.34466430  0.98881992  1
  H  H454  1  0.56326146  0.38362162  0.87521348  1
  O  O455  1  0.50181116  0.39936231  0.75151594  1
  C  C456  1  0.71096101  0.45130542  0.95360232  1
  C  C457  1  0.71658114  0.38514744  0.77351449  1
  Cu  Cu458  1  0.73024676  0.48467387  0.63757746  1
  H  H459  1  0.64642564  0.39604661  0.84658335  1
  C  C460  1  0.63064915  0.40148109  0.95208776  1
  C  C461  1  0.73756733  0.26792263  0.83183061  1
  C  C462  1  0.73301918  0.31459522  0.85676458  1
  C  C463  1  0.72334476  0.34178652  0.74169495  1
  C  C464  1  0.71998564  0.40444666  0.91410128  1
  H  H465  1  0.51148696  0.32049832  0.68050566  1
  H  H466  1  0.50209284  0.47094421  0.94805662  1
  H  H467  1  0.71886699  0.32869971  0.63061957  1
  H  H468  1  0.70694724  0.40814497  0.68493461  1
  H  H469  1  0.56943497  0.27842632  0.91463356  1
  C  C470  1  0.58672912  0.37916229  0.96956647  1
  C  C471  1  0.50795515  0.25077814  0.90061605  1
  C  C472  1  0.74797353  0.47625047  0.94880396  1
  O  O473  1  0.73058787  0.25599198  0.69706211  1
  C  C474  1  0.66965437  0.46735910  0.99023326  1
  C  C475  1  0.73880218  0.33298965  0.99979076  1
  O  O476  1  0.63220702  0.44725781  0.99067725  1
  Cu  Cu477  1  0.56633865  0.68365109  0.31466808  1
  C  C478  1  0.56797910  0.57619331  0.21897186  1
  C  C479  1  0.57338871  0.53348447  0.26764255  1
  C  C480  1  0.53223558  0.60013846  0.28204410  1
  O  O481  1  0.52949912  0.63954684  0.25499865  1
  C  C482  1  0.59239489  0.59823142  0.11199784  1
  C  C483  1  0.63371129  0.53289606  0.10018594  1
  O  O484  1  0.71513306  0.62398998  0.26394339  1
  H  H485  1  0.71984549  0.70291166  0.26899524  1
  H  H486  1  0.58973061  0.63196582  0.08588721  1
  O  O487  1  0.52312793  0.71758324  0.38539614  1
  H  H488  1  0.55082704  0.51909191  0.34337783  1
  C  C489  1  0.60707702  0.51148577  0.20227952  1
  O  O490  1  0.61122366  0.72096516  0.35719742  1
  O  O491  1  0.62655275  0.73460246  0.12534274  1
  H  H492  1  0.70392085  0.56926335  0.09151753  1
  O  O493  1  0.50616611  0.57878483  0.35563513  1
  C  C494  1  0.67167948  0.50878237  0.04505481  1
  O  O495  1  0.50647720  0.50878518  0.49354393  1
  C  C496  1  0.62596691  0.74551889  0.25329696  1
  H  H497  1  0.51685309  0.50330833  0.19002020  1
  C  C498  1  0.62692851  0.57618265  0.05006884  1
  C  C499  1  0.70610315  0.53605345  0.05289156  1
  C  C500  1  0.74669079  0.62269879  0.33198378  1
  C  C501  1  0.70695926  0.89982107  0.43707212  1
  H  H502  1  0.73649150  0.76023896  0.05331495  1
  C  C503  1  0.70546505  0.94414578  0.47453158  1
  C  C504  1  0.51806345  0.86690975  0.10145786  1
  H  H505  1  0.74008760  0.83968035  0.41263996  1
  C  C506  1  0.55274211  0.89284731  0.08780142  1
  C  C507  1  0.62797662  0.80972663  0.43696548  1
  Cu  Cu508  1  0.68316355  0.96907923  0.04396213  1
  H  H509  1  0.60273674  0.99765666  0.21679770  1
  C  C510  1  0.68302014  0.85051467  0.23438454  1
  C  C511  1  0.59528542  0.97983614  0.32450092  1
  H  H512  1  0.70548139  0.86528320  0.15506846  1
  O  O513  1  0.73645356  0.94849635  0.05696518  1
  C  C514  1  0.66575609  0.80979952  0.20303790  1
  O  O515  1  0.62854744  0.94161766  0.03204594  1
  H  H516  1  0.56307868  0.96442270  0.29654919  1
  C  C517  1  0.67525092  0.86654242  0.38241786  1
  C  C518  1  0.74231593  0.87294260  0.45838813  1
  C  C519  1  0.62983261  0.94874629  0.37406740  1
  H  H520  1  0.62614038  0.93285318  0.48501713  1
  C  C521  1  0.63925646  0.78902842  0.30690562  1
  O  O522  1  0.67385483  0.96863053  0.44380918  1
  H  H523  1  0.67496434  0.79630131  0.09922128  1
  H  H524  1  0.55831078  0.91705673  0.16656259  1
  H  H525  1  0.63841381  0.92400494  0.29364902  1
  C  C526  1  0.64327194  0.84918198  0.47883720  1
  C  C527  1  0.51551927  0.82991304  0.00651215  1
  C  C528  1  0.57244954  0.56522846  0.81309616  1
  C  C529  1  0.60908126  0.54882023  0.75215437  1
  C  C530  1  0.56499131  0.61101439  0.81696466  1
  H  H531  1  0.55039079  0.54211407  0.85717128  1
  H  H532  1  0.58954024  0.67450363  0.76752338  1
  C  C533  1  0.59619923  0.64022851  0.76874796  1
  C  C534  1  0.63361581  0.62400443  0.71045765  1
  C  C535  1  0.63997781  0.57977432  0.70872604  1
  C  C536  1  0.52111003  0.62273743  0.85922580  1
  H  H537  1  0.61896615  0.51441490  0.76242444  1
  O  O538  1  0.68293040  0.52123910  0.67347468  1
  C  C539  1  0.68034596  0.56215169  0.66522334  1
  H  H540  1  0.66026513  0.64467688  0.67298780  1
  O  O541  1  0.71279855  0.58293663  0.62795264  1
  C  C542  1  0.51517568  0.66234420  0.92570864  1
  H  H543  1  0.54224662  0.68230377  0.94806096  1
  H  H544  1  0.73197353  0.60388748  0.96480540  1
  C  C545  1  0.73258856  0.71478995  0.71247156  1
  H  H546  1  0.72303633  0.72177424  0.59649177  1
  O  O547  1  0.50979418  0.69763637  0.61861432  1
  C  C548  1  0.73036004  0.74599675  0.82428512  1
  C  C549  1  0.74421126  0.73668450  0.96557078  1
  C  C550  1  0.74345853  0.52151416  0.98784181  1
  C  C551  1  0.74785966  0.67440250  0.74199006  1
  C  C552  1  0.50075544  0.71561479  0.50559838  1
  H  H553  1  0.64652239  0.59156762  0.96640391  1
  O  O554  1  0.73098611  0.91171189  0.84886740  1
  C  C555  1  0.74971285  0.92088044  0.97300266  1
  H  H556  1  0.53037462  0.75289484  0.99945499  1
  O  O557  1  0.64074285  0.90405251  0.83314067  1
  O  O558  1  0.70026450  0.81866241  0.88707509  1
  H  H559  1  0.59748409  0.84745150  0.77569043  1
  H  H560  1  0.63434728  0.86497893  0.57970437  1
  H  H561  1  0.54036605  0.79445807  0.81060365  1
  C  C562  1  0.74655459  0.95722832  0.52869194  1
  C  C563  1  0.54259452  0.82520520  0.88005931  1
  C  C564  1  0.57569936  0.85336307  0.86132263  1
  C  C565  1  0.57953669  0.88691702  0.96323085  1
  Cu  Cu566  1  0.68976382  0.87044831  0.84093182  1
  C  C567  1  0.70762355  0.78611921  0.78518480  1
  O  O568  1  0.69308087  0.79078136  0.66389635  1
  C  C569  1  0.61682217  0.91355598  0.94093573  1
  H  H570  1  0.60627869  0.79470716  0.51280266  1
  C  C571  1  0.94623696  0.17672465  0.14014400  1
  C  C572  1  0.84368813  0.18227061  0.12916805  1
  C  C573  1  0.91784007  0.21136847  0.11230064  1
  H  H574  1  0.84856824  0.17622790  0.24697044  1
  H  H575  1  0.78426600  0.15108166  0.11291037  1
  O  O576  1  0.94564290  0.13746854  0.09352649  1
  C  C577  1  0.78070576  0.17572103  0.40512331  1
  H  H578  1  0.96533530  0.10958243  0.32251417  1
  C  C579  1  0.97957449  0.19166118  0.23502214  1
  C  C580  1  0.92676313  0.02946143  0.43057029  1
  C  C581  1  0.81028324  0.16452828  0.05298109  1
  C  C582  1  0.80938401  0.21091636  0.43442096  1
  H  H583  1  0.77775794  0.09687539  0.27485341  1
  C  C584  1  0.98793938  0.23291533  0.27609225  1
  H  H585  1  0.85783178  0.03008846  0.37017172  1
  H  H586  1  0.88495463  0.12781260  0.04107692  1
  C  C587  1  0.87524857  0.20277192  0.03980761  1
  H  H588  1  0.95647824  0.01297699  0.41026595  1
  C  C589  1  0.88898531  0.01346261  0.34610701  1
  H  H590  1  0.78961788  0.14147603  0.42723624  1
  C  C591  1  0.99833122  0.11973474  0.33380900  1
  H  H592  1  0.83207897  0.12513035  0.47920196  1
  C  C593  1  0.85108025  0.19156943  0.48821616  1
  C  C594  1  0.79443026  0.25237320  0.42134584  1
  C  C595  1  0.75462731  0.25960503  0.35660129  1
  O  O596  1  0.98979946  0.44806551  0.33672822  1
  C  C597  1  0.88083398  0.39198201  0.46783625  1
  H  H598  1  0.81265161  0.27920189  0.46356823  1
  H  H599  1  0.80092112  0.33341852  0.36111810  1
  C  C600  1  0.90751760  0.41057061  0.35863456  1
  H  H601  1  0.89764209  0.27636202  0.11154040  1
  H  H602  1  0.94200459  0.26532809  0.43938817  1
  C  C603  1  0.92373983  0.25451985  0.14555119  1
  C  C604  1  0.96088842  0.26597322  0.21767256  1
  H  H605  1  0.92544421  0.47091920  0.24348705  1
  C  C606  1  0.96947041  0.31224129  0.25921405  1
  C  C607  1  0.86742536  0.47655114  0.37011701  1
  H  H608  1  0.90319330  0.32585381  0.29782481  1
  C  C609  1  0.76589699  0.33866273  0.37487343  1
  C  C610  1  0.94421912  0.38399912  0.31823700  1
  C  C611  1  0.84202784  0.45549048  0.47567701  1
  C  C612  1  0.98376838  0.40652498  0.31547261  1
  C  C613  1  0.93617952  0.33990035  0.29914265  1
  C  C614  1  0.90108687  0.45392739  0.31235582  1
  H  H615  1  0.76998458  0.40563860  0.41233184  1
  H  H616  1  0.75049844  0.31226250  0.08533859  1
  O  O617  1  0.96075813  0.14014418  0.68383189  1
  C  C618  1  0.92634371  0.15702447  0.63208725  1
  C  C619  1  0.83339280  0.19359665  0.82404533  1
  H  H620  1  0.82733101  0.19746489  0.70412658  1
  C  C621  1  0.86855836  0.21377861  0.88588826  1
  H  H622  1  0.92078613  0.15224922  0.89715857  1
  H  H623  1  0.82075276  0.08918638  0.63723796  1
  H  H624  1  0.77449732  0.05971248  0.66625864  1
  H  H625  1  0.95366724  0.22669232  0.89891683  1
  C  C626  1  0.91873196  0.20242332  0.60340351  1
  C  C627  1  0.78528412  0.03117974  0.60454822  1
  C  C628  1  0.84796196  0.06924638  0.59420372  1
  O  O629  1  0.82563340  0.03037371  0.58915678  1
  C  C630  1  0.89238756  0.13145147  0.57822946  1
  C  C631  1  0.80264281  0.17043030  0.90094926  1
  C  C632  1  0.94554267  0.24080624  0.65524749  1
  C  C633  1  0.76494619  0.15296192  0.83449790  1
  C  C634  1  0.91686920  0.08077405  0.89591038  1
  H  H635  1  0.88803063  0.07809790  0.81635684  1
  H  H636  1  0.99415409  0.18632435  0.79150971  1
  H  H637  1  0.94856632  0.07722488  0.83108493  1
  H  H638  1  0.89149210  0.23133873  0.81362430  1
  H  H639  1  0.99785317  0.17826663  0.58664816  1
  C  C640  1  0.88820096  0.08443525  0.57793550  1
  C  C641  1  0.88411404  0.21936943  0.53575005  1
  H  H642  1  0.95674998  0.06751732  0.58974645  1
  O  O643  1  0.75936298  0.15442421  0.69278717  1
  C  C644  1  0.91549138  0.12360872  0.97668611  1
  C  C645  1  0.92675018  0.05933809  0.53634607  1
  H  H646  1  0.91413539  0.04860476  0.95873697  1
  C  C647  1  0.75230159  0.00273117  0.57568891  1
  C  C648  1  0.85483407  0.14784417  0.51872502  1
  C  C649  1  0.95343623  0.27157810  0.54905280  1
  C  C650  1  0.95625386  0.25103867  0.80677976  1
  C  C651  1  0.96719778  0.29234959  0.83578227  1
  C  C652  1  0.96975512  0.32744809  0.72886769  1
  H  H653  1  0.88145280  0.25361779  0.51423313  1
  H  H654  1  0.97532983  0.33901093  0.50209231  1
  C  C655  1  0.80984799  0.48158098  0.54246348  1
  C  C656  1  0.96632322  0.31369264  0.58459362  1
  O  O657  1  0.97998587  0.38426785  0.88578541  1
  C  C658  1  0.84593557  0.41317525  0.52473207  1
  C  C659  1  0.98227328  0.37142733  0.75975454  1
  O  O660  1  0.78353831  0.46379510  0.62917753  1
  O  O661  1  0.99327497  0.39467069  0.64688480  1
  H  H662  1  0.97204241  0.30141184  0.95226766  1
  H  H663  1  0.77743523  0.46263340  0.90307207  1
  H  H664  1  0.82302702  0.39484890  0.59567337  1
  H  H665  1  0.88935178  0.35919256  0.51056460  1
  C  C666  1  0.76818410  0.66414084  0.36635290  1
  C  C667  1  0.87782653  0.72201494  0.14462391  1
  H  H668  1  0.93397231  0.68013755  0.13976423  1
  C  C669  1  0.91859463  0.71031666  0.11386445  1
  H  H670  1  0.77449207  0.68862474  0.10654603  1
  H  H671  1  0.86307274  0.51092928  0.35198144  1
  O  O672  1  0.76155671  0.58548467  0.38176144  1
  C  C673  1  0.80747818  0.65901364  0.43982184  1
  H  H674  1  0.82187222  0.62810390  0.45690977  1
  C  C675  1  0.81193740  0.73836455  0.45223892  1
  C  C676  1  0.82916658  0.69526993  0.47549498  1
  C  C677  1  0.75052222  0.70359778  0.32895494  1
  H  H678  1  0.97375524  0.70397822  0.40936971  1
  C  C679  1  0.98437335  0.73775569  0.43091822  1
  C  C680  1  0.99959607  0.69622762  0.01015308  1
  C  C681  1  0.98718818  0.73851330  0.05067753  1
  C  C682  1  0.94143194  0.74882124  0.07178623  1
  C  C683  1  0.77184021  0.74054068  0.37773322  1
  H  H684  1  0.81997980  0.75884721  0.19227314  1
  C  C685  1  0.85158713  0.75628381  0.14571772  1
  O  O686  1  0.89442260  0.99580870  0.05596231  1
  C  C687  1  0.92163553  0.78951993  0.05957052  1
  O  O688  1  0.90271167  0.75652514  0.45410494  1
  C  C689  1  0.94579025  0.90807896  0.03227269  1
  H  H690  1  0.92394183  0.93767272  0.03212070  1
  O  O691  1  0.94403698  0.82492233  0.01565999  1
  C  C692  1  0.89212081  0.99373469  0.18226838  1
  C  C693  1  0.87866254  0.78987650  0.08873949  1
  H  H694  1  0.96621123  0.91102545  0.13036762  1
  C  C695  1  0.78286759  0.89068857  0.01476630  1
  O  O696  1  0.87146691  0.93221660  0.36197568  1
  C  C697  1  0.84593229  0.82529029  0.08279075  1
  C  C698  1  0.94980399  0.77125061  0.40870753  1
  H  H699  1  0.90698463  0.86168285  0.15468255  1
  C  C700  1  0.83450174  0.85954468  0.19061185  1
  H  H701  1  0.75912981  0.77177965  0.34600791  1
  C  C702  1  0.88098631  0.96390406  0.30434684  1
  H  H703  1  0.84996119  0.85840300  0.30085538  1
  C  C704  1  0.92186424  0.86484006  0.04116811  1
  C  C705  1  0.80298287  0.88911736  0.15436254  1
  H  H706  1  0.93515926  0.76535227  0.29755039  1
  H  H707  1  0.79477475  0.91360670  0.23021388  1
  H  H708  1  0.95883434  0.80555209  0.42127809  1
  C  C709  1  0.83248145  0.77996372  0.48440052  1
  C  C710  1  0.87510417  0.78613748  0.49381864  1
  C  C711  1  0.84397522  0.57490185  0.87464655  1
  C  C712  1  0.83815305  0.62044176  0.87497330  1
  O  O713  1  0.86316078  0.65128553  0.83417777  1
  C  C714  1  0.84914693  0.69631896  0.83087671  1
  C  C715  1  0.89777062  0.53182087  0.72005821  1
  C  C716  1  0.88847351  0.56342032  0.82922237  1
  C  C717  1  0.96563076  0.57091945  0.87560630  1
  C  C718  1  0.97251702  0.54256189  0.75060825  1
  C  C719  1  0.81765579  0.54054118  0.90154266  1
  C  C720  1  0.93853406  0.52196824  0.67816441  1
  C  C721  1  0.79455934  0.62765011  0.91211978  1
  H  H722  1  0.82090213  0.70023847  0.75823710  1
  C  C723  1  0.92379163  0.58372774  0.89800871  1
  C  C724  1  0.76835949  0.66707161  0.88343928  1
  H  H725  1  0.83737467  0.69998529  0.94408303  1
  H  H726  1  0.87230522  0.50999016  0.67110464  1
  C  C727  1  0.88039261  0.73350846  0.79209374  1
  C  C728  1  0.76454515  0.59696967  0.94783561  1
  C  C729  1  0.77594235  0.55312522  0.94722141  1
  H  H730  1  0.82634857  0.50661042  0.89174087  1
  C  C731  1  0.76341892  0.69773867  0.99810600  1
  Cu  Cu732  1  0.76358940  0.55771681  0.56824471  1
  H  H733  1  0.91631354  0.60963133  0.97694502  1
  H  H734  1  0.75019631  0.64993463  0.65596652  1
  H  H735  1  0.99083917  0.59021640  0.93371851  1
  O  O736  1  0.81007112  0.52171070  0.51481539  1
  H  H737  1  0.89927458  0.74153044  0.88550217  1
  H  H738  1  0.97611505  0.66971232  0.99575501  1
  H  H739  1  0.85871276  0.69545896  0.53511756  1
  H  H740  1  0.99711446  0.74063408  0.54466191  1
  H  H741  1  0.94381241  0.50237193  0.58431118  1
  H  H742  1  0.89944888  0.72601701  0.69316334  1
  H  H743  1  0.92268334  0.90798990  0.53708201  1
  H  H744  1  0.86236315  0.76252766  0.74929863  1
  O  O745  1  0.99430585  0.99133027  0.83834939  1
  C  C746  1  0.80032452  0.81012102  0.51626798  1
  H  H747  1  0.98815980  0.93415737  0.66042497  1
  H  H748  1  0.76705297  0.80113504  0.50928024  1
  C  C749  1  0.90050436  0.97142477  0.70740680  1
  C  C750  1  0.81229032  0.85284244  0.53664108  1
  C  C751  1  0.82369143  0.82798473  0.94017310  1
  C  C752  1  0.78283143  0.93270192  0.56129479  1
  H  H753  1  0.94385249  0.78082376  0.71537858  1
  H  H754  1  0.88253499  0.99869230  0.65588877  1
  H  H755  1  0.78265425  0.86107452  0.79463060  1
  C  C756  1  0.77918889  0.88831508  0.52945291  1
  H  H757  1  0.96467764  0.91099416  0.92881240  1
  C  C758  1  0.85459560  0.86125521  0.56242245  1
  H  H759  1  0.84995648  0.92976023  0.75274351  1
  C  C760  1  0.88304645  0.93543750  0.75959721  1
  C  C761  1  0.95231163  0.81429614  0.69569506  1
  H  H762  1  0.90336147  0.91045810  0.81287452  1
  C  C763  1  0.92548592  0.84322577  0.61816141  1
  C  C764  1  0.94236565  0.88512066  0.60393477  1
  H  H765  1  0.93455200  0.97324609  0.71228008  1
  C  C766  1  0.88519232  0.82926868  0.54838256  1
  H  H767  1  0.81341953  0.94803110  0.59491458  1
  C  C768  1  0.97799960  0.90049398  0.67555309  1
  H  H769  1  0.82935563  0.80479673  0.85479728  1
  C  C770  1  0.98952759  0.82543950  0.75878105  1
  C  C771  1  0.79618757  0.86031659  0.90651901  1
  H  H772  1  0.86214530  0.89413850  0.59830888  1
  H  H773  1  0.89458617  0.86077828  0.95776787  1
