# generated using pymatgen
data_CuH15C22O5
_symmetry_space_group_name_H-M   'P 1'
_cell_length_a   27.36293451
_cell_length_b   26.86952867
_cell_length_c   12.65395304
_cell_angle_alpha   90.00000000
_cell_angle_beta   90.00000000
_cell_angle_gamma   90.00000000
_symmetry_Int_Tables_number   1
_chemical_formula_structural   CuH15C22O5
_chemical_formula_sum   'Cu18 H270 C396 O90'
_cell_volume   9303.55517827
_cell_formula_units_Z   18
loop_
 _symmetry_equiv_pos_site_id
 _symmetry_equiv_pos_as_xyz
  1  'x, y, z'
loop_
 _atom_site_type_symbol
 _atom_site_label
 _atom_site_symmetry_multiplicity
 _atom_site_fract_x
 _atom_site_fract_y
 _atom_site_fract_z
 _atom_site_occupancy
  H  H0  1  0.20823432  0.20188144  0.40498174  1
  O  O1  1  0.01643472  0.09866319  0.39844746  1
  O  O2  1  0.03486738  0.09306386  0.17500008  1
  C  C3  1  0.23642921  0.11127534  0.37111029  1
  C  C4  1  0.20176014  0.12528171  0.45635059  1
  C  C5  1  0.00891457  0.10619099  0.09762464  1
  C  C6  1  0.19171689  0.17521139  0.46286329  1
  H  H7  1  0.24542701  0.07204502  0.36957715  1
  H  H8  1  0.15842405  0.18162091  0.05009113  1
  C  C9  1  0.14901186  0.22275574  0.03402434  1
  H  H10  1  0.11894881  0.02657884  0.35016816  1
  C  C11  1  0.10901128  0.00486973  0.41630017  1
  O  O12  1  0.19666496  0.04197158  0.49594986  1
  C  C13  1  0.14652119  0.24927424  0.14391005  1
  H  H14  1  0.12554866  0.22690889  0.20098810  1
  O  O15  1  0.00708611  0.08222798  0.01595473  1
  H  H16  1  0.24981250  0.25119703  0.47220407  1
  H  H17  1  0.02280777  0.32835042  0.00044448  1
  C  C18  1  0.24807953  0.33361394  0.46907211  1
  C  C19  1  0.23052072  0.28488675  0.48976412  1
  H  H20  1  0.18350244  0.49318584  0.23068783  1
  H  H21  1  0.18716026  0.25322300  0.17167988  1
  H  H22  1  0.12910572  0.28615380  0.14924693  1
  O  O23  1  0.03658509  0.48252027  0.03301318  1
  H  H24  1  0.01265520  0.41078810  0.15160833  1
  O  O25  1  0.15394274  0.48381036  0.03860228  1
  H  H26  1  0.04698251  0.40281975  0.48101949  1
  O  O27  1  0.14682849  0.16389710  0.85418216  1
  Cu  Cu28  1  0.14210826  0.04837204  0.71288263  1
  H  H29  1  0.09369538  0.12973372  0.70527426  1
  C  C30  1  0.06623671  0.16026014  0.71511634  1
  C  C31  1  0.07207261  0.19484619  0.79818940  1
  C  C32  1  0.11531131  0.19250455  0.86852947  1
  H  H33  1  0.08336543  0.23398922  0.67591471  1
  O  O34  1  0.15946201  0.09315070  0.60534104  1
  O  O35  1  0.07424084  0.05377892  0.71432719  1
  C  C36  1  0.02674610  0.16641112  0.64923571  1
  H  H37  1  0.12676095  0.16399267  0.55633945  1
  H  H38  1  0.02371988  0.14050150  0.58665736  1
  C  C39  1  0.15018725  0.23993751  0.57083023  1
  O  O40  1  0.11230079  0.22600406  0.95843145  1
  C  C41  1  0.18469910  0.08689294  0.52317817  1
  C  C42  1  0.15581782  0.19121384  0.53433984  1
  C  C43  1  0.03542266  0.23214285  0.81275394  1
  O  O44  1  0.24588033  0.05058020  0.94127250  1
  C  C45  1  0.05159332  0.01257360  0.68876702  1
  H  H46  1  0.18212414  0.23750321  0.99300521  1
  C  C47  1  0.08500554  0.02349127  0.50566341  1
  H  H48  1  0.07650757  0.06314234  0.50664523  1
  H  H49  1  0.24179914  0.41165017  0.51180916  1
  H  H50  1  0.24482718  0.49804762  0.80393618  1
  H  H51  1  0.24260100  0.36342298  0.94686980  1
  H  H52  1  0.03618477  0.25698092  0.88515036  1
  O  O53  1  0.24584910  0.26998955  0.95816765  1
  H  H54  1  0.11132914  0.37727865  0.74870061  1
  H  H55  1  0.08348309  0.37975114  0.58167303  1
  C  C56  1  0.21731576  0.46968919  0.79186865  1
  H  H57  1  0.11392999  0.42360082  0.91111968  1
  H  H58  1  0.08569802  0.44490039  0.54769039  1
  H  H59  1  0.04042531  0.43838195  0.71350794  1
  C  C60  1  0.22582109  0.37486701  0.51638932  1
  C  C61  1  0.18391552  0.28133841  0.54373097  1
  C  C62  1  0.01862976  0.42492763  0.64324608  1
  C  C63  1  0.18248275  0.46318432  0.87261361  1
  C  C64  1  0.11399918  0.25799431  0.63871468  1
  C  C65  1  0.18156394  0.40485526  0.68564098  1
  C  C66  1  0.18834456  0.36603136  0.59726608  1
  C  C67  1  0.16133389  0.32236109  0.59891223  1
  C  C68  1  0.18847765  0.48865441  0.97131528  1
  O  O69  1  0.11489332  0.30337634  0.66354446  1
  C  C70  1  0.22019483  0.43812025  0.70569014  1
  C  C71  1  0.14319760  0.42909112  0.85311078  1
  C  C72  1  0.06098262  0.41215182  0.55828185  1
  C  C73  1  0.14251726  0.40296680  0.75927551  1
  C  C74  1  0.16476222  0.67844126  0.24162977  1
  C  C75  1  0.12385663  0.70428286  0.27945838  1
  C  C76  1  0.16877262  0.62377132  0.23404460  1
  O  O77  1  0.13512294  0.59618788  0.26717033  1
  H  H78  1  0.09146036  0.68398308  0.30286557  1
  Cu  Cu79  1  0.08260237  0.56199339  0.18554078  1
  C  C80  1  0.20814191  0.70534762  0.22083361  1
  O  O81  1  0.20764939  0.60426098  0.20240997  1
  O  O82  1  0.07505431  0.61977009  0.09603475  1
  Cu  Cu83  1  0.22060871  0.56178550  0.09084650  1
  Cu  Cu84  1  0.01523649  0.55615119  0.42870807  1
  C  C85  1  0.24618792  0.51133748  0.46053090  1
  O  O86  1  0.06491730  0.50712070  0.42161484  1
  H  H87  1  0.02660220  0.69222578  0.02968797  1
  C  C88  1  0.23709863  0.50021483  0.35159310  1
  H  H89  1  0.24316669  0.68479664  0.20902032  1
  C  C90  1  0.18935135  0.50127093  0.31786231  1
  C  C91  1  0.09083669  0.61472413  0.00317157  1
  C  C92  1  0.15071541  0.50553052  0.39279749  1
  O  O93  1  0.08846402  0.50311261  0.26158477  1
  H  H94  1  0.01566821  0.67620208  0.37298572  1
  Cu  Cu95  1  0.09597345  0.51525572  0.00847563  1
  C  C96  1  0.09873168  0.50070739  0.35677217  1
  C  C97  1  0.00171103  0.72493157  0.23894643  1
  H  H98  1  0.15473308  0.73810678  0.10446720  1
  C  C99  1  0.12458820  0.75566915  0.28585035  1
  C  C100  1  0.20969803  0.75688652  0.23784409  1
  H  H101  1  0.03223074  0.75154468  0.25473495  1
  C  C102  1  0.14805679  0.75403723  0.02175723  1
  C  C103  1  0.11730181  0.95270429  0.41445169  1
  C  C104  1  0.21978914  0.85666172  0.24220573  1
  H  H105  1  0.09297861  0.92066203  0.10221061  1
  H  H106  1  0.24881189  0.83511960  0.20872466  1
  H  H107  1  0.23068081  0.87358232  0.45310348  1
  H  H108  1  0.05954087  0.92321498  0.30007902  1
  H  H109  1  0.04672129  0.88865914  0.41813294  1
  C  C110  1  0.14451648  0.92268779  0.32842963  1
  O  O111  1  0.05487233  0.77643453  0.06405228  1
  C  C112  1  0.19137368  0.94057383  0.30271564  1
  C  C113  1  0.02009276  0.80729272  0.06850330  1
  H  H114  1  0.08858210  0.77618047  0.30476619  1
  C  C115  1  0.22686592  0.90877560  0.25581828  1
  O  O116  1  0.08784289  0.85156039  0.31645761  1
  H  H117  1  0.24271122  0.77929461  0.22270069  1
  C  C118  1  0.13224430  0.87256021  0.30272282  1
  C  C119  1  0.04522743  0.88771531  0.33121594  1
  C  C120  1  0.17259681  0.84142680  0.26957018  1
  C  C121  1  0.16756432  0.78492282  0.26220457  1
  H  H122  1  0.11915683  0.82352295  0.08358046  1
  H  H123  1  0.20236119  0.97782601  0.32084442  1
  C  C124  1  0.10754999  0.79325165  0.02562142  1
  C  C125  1  0.01817455  0.85834387  0.03559923  1
  C  C126  1  0.09367207  0.91585601  0.01874496  1
  C  C127  1  0.10234734  0.92170234  0.49905166  1
  H  H128  1  0.01706284  0.97786464  0.48466396  1
  H  H129  1  0.10865698  0.88106935  0.49416443  1
  H  H130  1  0.23826340  0.81774553  0.02070914  1
  C  C131  1  0.18453840  0.62274943  0.58679892  1
  C  C132  1  0.07913862  0.65359552  0.92568904  1
  C  C133  1  0.20635566  0.60421277  0.68266227  1
  O  O134  1  0.03778032  0.53930257  0.70626615  1
  C  C135  1  0.04457438  0.69097544  0.94685398  1
  C  C136  1  0.11204718  0.58133840  0.64991268  1
  C  C137  1  0.18252483  0.57204227  0.75556230  1
  C  C138  1  0.02930699  0.72289715  0.86670523  1
  C  C139  1  0.10375353  0.65164294  0.82911352  1
  C  C140  1  0.09441275  0.68664587  0.75228646  1
  C  C141  1  0.05551328  0.72143014  0.76658946  1
  C  C142  1  0.13561470  0.55568019  0.73054201  1
  H  H143  1  0.19840395  0.56082116  0.83057340  1
  H  H144  1  0.12048649  0.52750291  0.77759448  1
  C  C145  1  0.05954750  0.56478490  0.64466664  1
  H  H146  1  0.13120610  0.62542364  0.81294608  1
  O  O147  1  0.23099894  0.70832518  0.70501341  1
  H  H148  1  0.11757088  0.68567915  0.67919717  1
  C  C149  1  0.13559098  0.61312409  0.57368916  1
  H  H150  1  0.20429608  0.64983706  0.53184818  1
  C  C151  1  0.20828948  0.51613966  0.53564404  1
  H  H152  1  0.21742805  0.52420653  0.62027911  1
  H  H153  1  0.01627962  0.66085184  0.66973940  1
  H  H154  1  0.13229863  0.51047406  0.56080625  1
  O  O155  1  0.03477101  0.58351147  0.56173738  1
  O  O156  1  0.22501898  0.51723526  0.98751629  1
  C  C157  1  0.16057828  0.51111475  0.50069284  1
  H  H158  1  0.13334768  0.72634563  0.96159861  1
  O  O159  1  0.11544340  0.57717220  0.97270851  1
  H  H160  1  0.11325134  0.62883301  0.51041165  1
  C  C161  1  0.03627583  0.75370601  0.67821339  1
  H  H162  1  0.18050471  0.77151621  0.98909392  1
  H  H163  1  0.23931364  0.76988868  0.80977489  1
  C  C164  1  0.00874629  0.83073798  0.53930964  1
  C  C165  1  0.06444512  0.86713148  0.86268519  1
  Cu  Cu166  1  0.24254442  0.98085564  0.93710739  1
  H  H167  1  0.04002351  0.83830347  0.83493315  1
  H  H168  1  0.17785137  0.81489515  0.71925152  1
  H  H169  1  0.09487996  0.80614701  0.94749422  1
  C  C170  1  0.13405298  0.92333708  0.84912241  1
  O  O171  1  0.03084134  0.98719815  0.75279377  1
  C  C172  1  0.05979505  0.88149560  0.97050155  1
  H  H173  1  0.18473600  0.78536274  0.59515542  1
  H  H174  1  0.10492096  0.80039690  0.71258705  1
  C  C175  1  0.16905863  0.95156686  0.78644952  1
  C  C176  1  0.24025433  0.76349227  0.72471501  1
  C  C177  1  0.07064323  0.79413724  0.66682789  1
  C  C178  1  0.07166060  0.99342259  0.58670450  1
  C  C179  1  0.04978567  0.82589359  0.60008671  1
  O  O180  1  0.24219507  0.96008892  0.52921695  1
  C  C181  1  0.20711668  0.80139006  0.66682711  1
  C  C182  1  0.07779343  0.94226853  0.58553381  1
  H  H183  1  0.23149011  0.83066403  0.63777761  1
  O  O184  1  0.19434860  0.98547275  0.82992518  1
  C  C185  1  0.10315776  0.88678632  0.80210919  1
  Cu  Cu186  1  0.18658355  0.99158347  0.58866556  1
  C  C187  1  0.13087050  0.93546496  0.95834729  1
  H  H188  1  0.10667540  0.87300128  0.72115708  1
  H  H189  1  0.06590676  0.91984098  0.65383588  1
  O  O190  1  0.17026141  0.94289691  0.68798809  1
  H  H191  1  0.15646533  0.96249592  0.98785765  1
  C  C192  1  0.45930085  0.12099784  0.11533911  1
  C  C193  1  0.34982860  0.04784863  0.41937599  1
  H  H194  1  0.44646653  0.10994860  0.19348397  1
  H  H195  1  0.45589327  0.02157851  0.35911289  1
  C  C196  1  0.45490278  0.07315895  0.04759765  1
  H  H197  1  0.37344560  0.22557155  0.47817340  1
  H  H198  1  0.41803895  0.05957166  0.05653237  1
  H  H199  1  0.31127131  0.06244712  0.40878345  1
  C  C200  1  0.37421146  0.01231551  0.35263886  1
  H  H201  1  0.43065554  0.14634786  0.07854943  1
  O  O202  1  0.49731456  0.03456927  0.06702380  1
  H  H203  1  0.48828091  0.22264121  0.29945355  1
  C  C204  1  0.42264043  0.00145657  0.32376332  1
  H  H205  1  0.49832393  0.13438452  0.11146120  1
  O  O206  1  0.25632792  0.14167431  0.31599344  1
  H  H207  1  0.30884723  0.01683790  0.03659022  1
  C  C208  1  0.36311132  0.49264164  0.33093649  1
  H  H209  1  0.36804250  0.49111774  0.41429213  1
  H  H210  1  0.47199648  0.27251446  0.20295721  1
  C  C211  1  0.33466298  0.48987757  0.11701975  1
  H  H212  1  0.28270617  0.40611722  0.31017715  1
  C  C213  1  0.34776851  0.44491552  0.16580514  1
  C  C214  1  0.29904747  0.34229559  0.42108617  1
  C  C215  1  0.38689889  0.32816531  0.42558744  1
  C  C216  1  0.40348469  0.37169721  0.37289157  1
  C  C217  1  0.35784776  0.44645711  0.27507994  1
  O  O218  1  0.44860592  0.38116496  0.35398923  1
  C  C219  1  0.46351163  0.43400616  0.29442394  1
  H  H220  1  0.49024867  0.28825926  0.33717257  1
  C  C221  1  0.33913660  0.31190476  0.44679499  1
  H  H222  1  0.43845972  0.46234477  0.33042930  1
  C  C223  1  0.42169056  0.29062912  0.47535817  1
  C  C224  1  0.35933386  0.39689705  0.33640268  1
  C  C225  1  0.49729969  0.26061754  0.26905178  1
  H  H226  1  0.44934765  0.42483860  0.21540503  1
  H  H227  1  0.42656586  0.43898285  0.47297118  1
  C  C228  1  0.31129297  0.38362136  0.35127220  1
  H  H229  1  0.34486068  0.40796702  0.12666301  1
  H  H230  1  0.33304436  0.28066172  0.49710927  1
  H  H231  1  0.47961066  0.34379991  0.49078976  1
  H  H232  1  0.49446501  0.46434621  0.10339748  1
  H  H233  1  0.32142844  0.48989685  0.03510681  1
  H  H234  1  0.26544026  0.49509151  0.29103533  1
  O  O235  1  0.34012294  0.16227988  0.73665894  1
  O  O236  1  0.26859865  0.10470461  0.82024434  1
  C  C237  1  0.33334669  0.14084691  0.64923268  1
  Cu  Cu238  1  0.29127799  0.17471121  0.83832629  1
  H  H239  1  0.36403317  0.08809916  0.74814512  1
  C  C240  1  0.27836886  0.07307289  0.88420796  1
  C  C241  1  0.36501248  0.06125203  0.81475569  1
  C  C242  1  0.32803693  0.05349520  0.88965786  1
  C  C243  1  0.30215540  0.12828800  0.56709952  1
  C  C244  1  0.40970920  0.03807563  0.82684820  1
  H  H245  1  0.43734347  0.04645152  0.76652820  1
  C  C246  1  0.48465006  0.22850241  0.59566944  1
  H  H247  1  0.42580297  0.17648669  0.59486610  1
  C  C248  1  0.43822160  0.21264106  0.56765692  1
  C  C249  1  0.33744609  0.02079067  0.97402770  1
  C  C250  1  0.41799246  0.00495769  0.91274328  1
  O  O251  1  0.31423148  0.24182208  0.88325451  1
  H  H252  1  0.45699587  0.07705290  0.95648051  1
  C  C253  1  0.34660630  0.10528218  0.56320500  1
  H  H254  1  0.27037264  0.12271134  0.51409030  1
  C  C255  1  0.37537991  0.06788364  0.50498255  1
  H  H256  1  0.41435415  0.06054034  0.52204205  1
  C  C257  1  0.40755346  0.24105848  0.50575569  1
  O  O258  1  0.45109950  0.43325862  0.97641266  1
  H  H259  1  0.35244005  0.32816902  0.67911760  1
  C  C260  1  0.44176726  0.45096697  0.54824428  1
  H  H261  1  0.25356640  0.43758806  0.65354774  1
  C  C262  1  0.28121363  0.36748215  0.93162080  1
  O  O263  1  0.31261857  0.44426540  0.56350456  1
  C  C264  1  0.38396502  0.37597638  0.87705141  1
  C  C265  1  0.35563893  0.41993216  0.89892923  1
  H  H266  1  0.31211969  0.49890209  0.82830579  1
  H  H267  1  0.38132434  0.29452151  0.88228014  1
  C  C268  1  0.42504509  0.47184327  0.94757131  1
  H  H269  1  0.49240254  0.48972982  0.81436752  1
  H  H270  1  0.42292187  0.37966631  0.86723907  1
  H  H271  1  0.29481518  0.33873837  0.62091442  1
  C  C272  1  0.48045245  0.48277548  0.73645636  1
  C  C273  1  0.32697593  0.49128925  0.55498210  1
  C  C274  1  0.28594942  0.27541549  0.92061785  1
  C  C275  1  0.30456274  0.41354442  0.91719193  1
  H  H276  1  0.30695233  0.36499095  0.75094394  1
  C  C277  1  0.34319630  0.40472936  0.62125586  1
  C  C278  1  0.46951588  0.30450385  0.50727239  1
  C  C279  1  0.32297045  0.35634596  0.67045946  1
  C  C280  1  0.41836668  0.48734260  0.61079921  1
  C  C281  1  0.30951532  0.32639113  0.91251438  1
  C  C282  1  0.48857490  0.43298520  0.57453813  1
  C  C283  1  0.37800652  0.47139722  0.90279639  1
  H  H284  1  0.36261791  0.42848386  0.67726140  1
  H  H285  1  0.36909153  0.39726778  0.54887037  1
  H  H286  1  0.28189792  0.44722684  0.93626408  1
  C  C287  1  0.36123461  0.33003990  0.89292447  1
  C  C288  1  0.32120143  0.58407811  0.13079805  1
  H  H289  1  0.35534426  0.57467362  0.31854759  1
  O  O290  1  0.33629893  0.62072080  0.16824663  1
  C  C291  1  0.42125727  0.70772270  0.43037930  1
  H  H292  1  0.45759723  0.65176898  0.24133790  1
  H  H293  1  0.42422853  0.62793128  0.43017537  1
  H  H294  1  0.45106120  0.54705112  0.18260392  1
  C  C295  1  0.33584176  0.53325319  0.17564162  1
  C  C296  1  0.35069305  0.53797416  0.28117471  1
  C  C297  1  0.40306317  0.66027056  0.45639652  1
  O  O298  1  0.28502389  0.58511831  0.05823075  1
  C  C299  1  0.47104557  0.70125214  0.38151181  1
  C  C300  1  0.48424602  0.67641291  0.28564290  1
  C  C301  1  0.48294278  0.55190450  0.12303041  1
  H  H302  1  0.27307918  0.59950333  0.45439887  1
  H  H303  1  0.38448649  0.74536156  0.04200174  1
  C  C304  1  0.48107671  0.54828926  0.00804749  1
  C  C305  1  0.47815262  0.74784642  0.00343738  1
  C  C306  1  0.30252217  0.57715719  0.49135715  1
  H  H307  1  0.49822615  0.98997957  0.18831797  1
  H  H308  1  0.48581918  0.79742725  0.43247340  1
  H  H309  1  0.29149126  0.87577297  0.10205024  1
  C  C310  1  0.30859754  0.90073166  0.16544461  1
  C  C311  1  0.39954514  0.78326670  0.05513539  1
  C  C312  1  0.47103171  0.85561326  0.31040027  1
  C  C313  1  0.39645198  0.75389109  0.45481536  1
  O  O314  1  0.41187343  0.79799859  0.43189017  1
  C  C315  1  0.26090820  0.85870311  0.49176508  1
  C  C316  1  0.27897169  0.92949902  0.23545314  1
  C  C317  1  0.45948261  0.80618769  0.36692827  1
  H  H318  1  0.48516879  0.88356741  0.37253308  1
  C  C319  1  0.27625021  0.81030899  0.47814997  1
  O  O320  1  0.42859072  0.96559350  0.25480835  1
  H  H321  1  0.27516146  0.98527470  0.36371836  1
  C  C322  1  0.38955878  0.87205653  0.10596431  1
  H  H323  1  0.46350244  0.77670562  0.30852142  1
  H  H324  1  0.46002700  0.91409033  0.10661033  1
  H  H325  1  0.33295155  0.81515144  0.09922373  1
  H  H326  1  0.26040229  0.78437288  0.42324986  1
  C  C327  1  0.37098703  0.82418744  0.08407863  1
  C  C328  1  0.35910435  0.90969078  0.17012245  1
  H  H329  1  0.43680908  0.87126594  0.27301815  1
  C  C330  1  0.38175634  0.94577267  0.23383292  1
  C  C331  1  0.34808215  0.97528110  0.29216037  1
  C  C332  1  0.47061684  0.83974265  0.05488699  1
  C  C333  1  0.44927687  0.79308844  0.03709042  1
  C  C334  1  0.44153150  0.87838777  0.09254368  1
  C  C335  1  0.29730996  0.96732590  0.30177972  1
  H  H336  1  0.38291777  0.96294889  0.03749138  1
  C  C337  1  0.32629564  0.59684359  0.82387089  1
  C  C338  1  0.33314819  0.64561352  0.85340565  1
  C  C339  1  0.36242946  0.55846352  0.87312122  1
  C  C340  1  0.30103715  0.68228282  0.81707061  1
  C  C341  1  0.40900474  0.56657136  0.92284281  1
  H  H342  1  0.36389627  0.65280844  0.90697332  1
  H  H343  1  0.42454791  0.60567871  0.93231072  1
  C  C344  1  0.28532107  0.58291242  0.76296992  1
  C  C345  1  0.43609660  0.52557454  0.95817005  1
  C  C346  1  0.37190760  0.51524109  0.57651469  1
  H  H347  1  0.42071662  0.57849051  0.57749795  1
  C  C348  1  0.38343910  0.56617118  0.56307117  1
  H  H349  1  0.27736876  0.54401645  0.73992159  1
  C  C350  1  0.30466108  0.73352003  0.87063986  1
  H  H351  1  0.29839179  0.70065337  0.59202369  1
  H  H352  1  0.41942927  0.53322803  0.76062143  1
  C  C353  1  0.26102190  0.67411406  0.74450485  1
  C  C354  1  0.33314708  0.69875984  0.54025339  1
  O  O355  1  0.46215316  0.70793726  0.98288916  1
  C  C356  1  0.34635992  0.50818730  0.86511096  1
  C  C357  1  0.29625728  0.52606873  0.50465754  1
  C  C358  1  0.34700861  0.59956774  0.52811581  1
  C  C359  1  0.35875052  0.65431936  0.51220151  1
  C  C360  1  0.25224467  0.62183232  0.73570242  1
  C  C361  1  0.43807728  0.50685256  0.70833281  1
  H  H362  1  0.25108213  0.72373741  0.99467393  1
  C  C363  1  0.35020603  0.74426755  0.50212807  1
  H  H364  1  0.36933738  0.75696748  0.78154978  1
  C  C365  1  0.37952179  0.99384834  0.98543328  1
  C  C366  1  0.28975296  0.88806205  0.56177984  1
  C  C367  1  0.26586982  0.80190226  0.96842562  1
  C  C368  1  0.46803632  0.98121105  0.92344321  1
  H  H369  1  0.35080609  0.89449545  0.67140684  1
  C  C370  1  0.27317836  0.75135104  0.95572365  1
  H  H371  1  0.45029847  0.92921384  0.78268839  1
  C  C372  1  0.47649355  0.94292456  0.84475686  1
  C  C373  1  0.33303503  0.81940184  0.84522595  1
  O  O374  1  0.31830750  0.91845028  0.85737145  1
  C  C375  1  0.28697503  0.89112087  0.90350713  1
  C  C376  1  0.34503853  0.82067337  0.60768965  1
  H  H377  1  0.37791279  0.80945863  0.65009655  1
  Cu  Cu378  1  0.30426787  0.97506264  0.78912375  1
  C  C379  1  0.29313333  0.83722144  0.90536438  1
  C  C380  1  0.33079391  0.86971338  0.61768964  1
  O  O381  1  0.30270232  0.96677217  0.64286644  1
  H  H382  1  0.35902855  0.84504968  0.80625352  1
  C  C383  1  0.31968089  0.79042140  0.53062527  1
  C  C384  1  0.27646673  0.94044984  0.57700634  1
  C  C385  1  0.34040432  0.76829181  0.83505441  1
  H  H386  1  0.27934455  0.76897342  0.70450912  1
  O  O387  1  0.25081602  0.91138477  0.95008214  1
  C  C388  1  0.58231861  0.08414147  0.38260261  1
  H  H389  1  0.56491299  0.12498879  0.23504004  1
  H  H390  1  0.64639016  0.17079402  0.23302777  1
  C  C391  1  0.59413408  0.11535221  0.29568253  1
  C  C392  1  0.63863782  0.14035601  0.28797464  1
  C  C393  1  0.63696295  0.18029568  0.05983052  1
  C  C394  1  0.68226705  0.03417243  0.20437125  1
  C  C395  1  0.68610368  0.17609586  0.03438945  1
  C  C396  1  0.71807177  0.21571242  0.05649480  1
  C  C397  1  0.70234841  0.17481550  0.40736381  1
  C  C398  1  0.67056823  0.13136445  0.37902251  1
  C  C399  1  0.53084345  0.07108576  0.40509928  1
  C  C400  1  0.61532221  0.21876153  0.12373823  1
  O  O401  1  0.56919402  0.21638328  0.14653045  1
  H  H402  1  0.69659275  0.05606558  0.27453794  1
  C  C403  1  0.73180120  0.19008478  0.32363916  1
  H  H404  1  0.67150521  0.06074156  0.14178367  1
  H  H405  1  0.73060214  0.17185654  0.24512248  1
  C  C406  1  0.60845689  0.14020894  0.00391450  1
  H  H407  1  0.64830750  0.01582625  0.22788463  1
  H  H408  1  0.66850896  0.08801884  0.02767192  1
  O  O409  1  0.50271627  0.08143100  0.33555525  1
  C  C410  1  0.61639447  0.06880048  0.46134832  1
  O  O411  1  0.51607581  0.05349795  0.49631418  1
  C  C412  1  0.66293004  0.09012257  0.45059146  1
  C  C413  1  0.64099469  0.44990876  0.36778791  1
  H  H414  1  0.65909503  0.34680641  0.07821834  1
  H  H415  1  0.57826760  0.26139190  0.28814253  1
  C  C416  1  0.65270871  0.25233512  0.15952999  1
  C  C417  1  0.70193755  0.25127219  0.13212779  1
  H  H418  1  0.57180010  0.39946256  0.07377777  1
  H  H419  1  0.54142553  0.41932095  0.28023745  1
  C  C420  1  0.64700079  0.35234331  0.38313058  1
  C  C421  1  0.50128906  0.43985673  0.03039191  1
  H  H422  1  0.65183545  0.27407868  0.39303356  1
  C  C423  1  0.65311176  0.34592894  0.16397170  1
  H  H424  1  0.64380434  0.35573715  0.47247229  1
  C  C425  1  0.51763645  0.45172649  0.29782074  1
  H  H426  1  0.52232742  0.47934580  0.22560272  1
  O  O427  1  0.64812770  0.45856370  0.46085157  1
  H  H428  1  0.52999470  0.46929442  0.37250699  1
  C  C429  1  0.64703355  0.39301249  0.21345742  1
  C  C430  1  0.54948787  0.26204872  0.22609855  1
  C  C431  1  0.65128755  0.30514411  0.33808566  1
  H  H432  1  0.51361866  0.37532471  0.12082503  1
  H  H433  1  0.55544516  0.29304316  0.16554208  1
  H  H434  1  0.64837174  0.42808315  0.17173686  1
  O  O435  1  0.63011956  0.48594126  0.30099144  1
  C  C436  1  0.64230249  0.39633742  0.32495508  1
  C  C437  1  0.64774898  0.30036843  0.22585198  1
  C  C438  1  0.53198236  0.39329751  0.05405013  1
  H  H439  1  0.72767778  0.28034805  0.16002597  1
  C  C440  1  0.57688757  0.07450096  0.84433017  1
  C  C441  1  0.61940084  0.06465544  0.90283047  1
  C  C442  1  0.54725765  0.11664365  0.87268455  1
  O  O443  1  0.67004843  0.17771011  0.58600944  1
  C  C444  1  0.56495261  0.04115515  0.75758199  1
  H  H445  1  0.64095246  0.02979930  0.89563399  1
  O  O446  1  0.52601130  0.04911390  0.70801123  1
  C  C447  1  0.64553509  0.16749691  0.79367306  1
  C  C448  1  0.66400674  0.20052634  0.69842552  1
  H  H449  1  0.70091506  0.04992751  0.76075902  1
  C  C450  1  0.72335758  0.01767485  0.79003769  1
  H  H451  1  0.66945616  0.13343572  0.80917099  1
  H  H452  1  0.64036646  0.19136225  0.86546059  1
  H  H453  1  0.60751323  0.15363139  0.76726525  1
  O  O454  1  0.55808276  0.21371190  0.68973408  1
  C  C455  1  0.56314668  0.14913533  0.95061173  1
  C  C456  1  0.69767256  0.19689397  0.51119861  1
  O  O457  1  0.59613762  0.01061900  0.72386665  1
  H  H458  1  0.69083187  0.08197524  0.50960406  1
  H  H459  1  0.60679771  0.04241093  0.51973254  1
  Cu  Cu460  1  0.51282014  0.09857250  0.60267766  1
  H  H461  1  0.69793829  0.21888527  0.71313385  1
  H  H462  1  0.53911174  0.17738943  0.98143596  1
  C  C463  1  0.63322514  0.09394378  0.98910868  1
  H  H464  1  0.63566609  0.23124817  0.68100086  1
  C  C465  1  0.72228027  0.24298285  0.51904307  1
  H  H466  1  0.50910008  0.12324847  0.83897123  1
  H  H467  1  0.70114206  0.14594271  0.98603454  1
  O  O468  1  0.50479288  0.15250137  0.69154891  1
  C  C469  1  0.52090845  0.19581708  0.66133300  1
  O  O470  1  0.71778332  0.36699374  0.95795589  1
  C  C471  1  0.50300195  0.27547845  0.56423353  1
  H  H472  1  0.52322460  0.46701834  0.97884086  1
  H  H473  1  0.74252214  0.40433653  0.53273785  1
  H  H474  1  0.62787648  0.35088120  0.71852502  1
  H  H475  1  0.64650372  0.29992540  0.56066508  1
  C  C476  1  0.54851382  0.42061074  0.72330265  1
  O  O477  1  0.64377941  0.37930027  0.89837152  1
  C  C478  1  0.69955375  0.33340913  0.78992248  1
  H  H479  1  0.68099112  0.44797704  0.65403015  1
  H  H480  1  0.51099011  0.41005192  0.52280152  1
  C  C481  1  0.74844131  0.31679999  0.77269075  1
  C  C482  1  0.50476838  0.44497423  0.67660712  1
  H  H483  1  0.53731928  0.29083417  0.60330836  1
  C  C484  1  0.66454451  0.33120647  0.71432448  1
  O  O485  1  0.56948291  0.38895433  0.67506674  1
  C  C486  1  0.71824109  0.44159919  0.67684700  1
  C  C487  1  0.67460649  0.30338000  0.62558357  1
  Cu  Cu488  1  0.62724230  0.44230109  0.86056157  1
  O  O489  1  0.56324775  0.43740890  0.81542265  1
  C  C490  1  0.71918941  0.27822656  0.61493579  1
  C  C491  1  0.68792754  0.36013486  0.89039541  1
  H  H492  1  0.52814955  0.36779196  0.98918901  1
  C  C493  1  0.73963894  0.46417674  0.76723072  1
  O  O494  1  0.66604230  0.49468181  0.83295362  1
  C  C495  1  0.71109472  0.49507473  0.84445125  1
  O  O496  1  0.72705943  0.55355336  0.27865602  1
  Cu  Cu497  1  0.66058394  0.54789946  0.30645795  1
  O  O498  1  0.61715042  0.59060613  0.24114807  1
  C  C499  1  0.56431472  0.71739596  0.30158236  1
  C  C500  1  0.53059741  0.68559665  0.24746535  1
  H  H501  1  0.54291600  0.66758532  0.17257241  1
  C  C502  1  0.61386465  0.59136173  0.14111009  1
  H  H503  1  0.53533322  0.56449288  0.24827084  1
  C  C504  1  0.56733406  0.57594790  0.09466995  1
  C  C505  1  0.52899381  0.56287782  0.16414609  1
  O  O506  1  0.64845731  0.60035527  0.07835896  1
  O  O507  1  0.62405623  0.72658577  0.16494661  1
  C  C508  1  0.50901074  0.72163496  0.44704256  1
  C  C509  1  0.61157416  0.73286418  0.26057977  1
  Cu  Cu510  1  0.69140420  0.56168785  0.00141305  1
  C  C511  1  0.55556902  0.73117929  0.40693065  1
  O  O512  1  0.74010421  0.56028909  0.10779421  1
  Cu  Cu513  1  0.57637704  0.74617382  0.07082922  1
  H  H514  1  0.58572441  0.74913754  0.45551323  1
  C  C515  1  0.74335912  0.53468871  0.19358679  1
  H  H516  1  0.70702705  0.98083990  0.07590427  1
  H  H517  1  0.74082286  0.86490723  0.24840163  1
  H  H518  1  0.50222378  0.85777940  0.25009742  1
  H  H519  1  0.50930796  0.84589572  0.03110014  1
  C  C520  1  0.54090553  0.95236756  0.30677626  1
  O  O521  1  0.63612280  0.76129933  0.32053018  1
  C  C522  1  0.72068460  0.99566526  0.15683656  1
  C  C523  1  0.67394800  0.84947187  0.01914058  1
  O  O524  1  0.63879980  0.88996530  0.43485928  1
  C  C525  1  0.68938286  0.84527437  0.12488849  1
  H  H526  1  0.51577361  0.96195633  0.37299809  1
  C  C527  1  0.58491811  0.92543356  0.32055183  1
  C  C528  1  0.60915440  0.92648267  0.13386260  1
  H  H529  1  0.65486373  0.90259015  0.25952306  1
  C  C530  1  0.73059482  0.86944180  0.16415589  1
  C  C531  1  0.53262224  0.96672034  0.20455826  1
  H  H532  1  0.72767972  0.96043105  0.20301236  1
  O  O533  1  0.59892885  0.80900794  0.05322977  1
  Cu  Cu534  1  0.69951069  0.76754749  0.33648250  1
  C  C535  1  0.59655768  0.90817388  0.42692610  1
  C  C536  1  0.61904713  0.91751773  0.23879760  1
  C  C537  1  0.53937591  0.95894749  0.01310056  1
  C  C538  1  0.56328653  0.95214585  0.11516770  1
  H  H539  1  0.66301084  0.82527782  0.17770615  1
  H  H540  1  0.63593217  0.91635736  0.07437963  1
  Cu  Cu541  1  0.68601392  0.93890434  0.48253914  1
  C  C542  1  0.50009045  0.99530158  0.00764119  1
  H  H543  1  0.59424893  0.58964056  0.93164504  1
  C  C544  1  0.51963259  0.56227546  0.93924127  1
  H  H545  1  0.51383131  0.56084650  0.85253433  1
  O  O546  1  0.72890586  0.52188673  0.91591621  1
  H  H547  1  0.50185240  0.73839278  0.52869146  1
  C  C548  1  0.56236794  0.57783957  0.98184642  1
  H  H549  1  0.58685052  0.89713428  0.93775273  1
  O  O550  1  0.72513550  0.89375538  0.69128444  1
  C  C551  1  0.52123852  0.92221269  0.86285815  1
  H  H552  1  0.69009951  0.88329030  0.86990265  1
  O  O553  1  0.52343213  0.75991838  0.98247777  1
  O  O554  1  0.57328149  0.91641798  0.51195560  1
  C  C555  1  0.62911545  0.82460433  0.98041150  1
  C  C556  1  0.71293089  0.97359537  0.74666539  1
  C  C557  1  0.55681534  0.92508620  0.93285137  1
  Cu  Cu558  1  0.59033462  0.95908459  0.62531441  1
  C  C559  1  0.70020133  0.93653600  0.70187652  1
  C  C560  1  0.74615707  0.90343900  0.98579468  1
  O  O561  1  0.61850789  0.81922521  0.88871488  1
  Cu  Cu562  1  0.74183857  0.87610131  0.55643572  1
  C  C563  1  0.70345139  0.87949629  0.94951965  1
  O  O564  1  0.65835031  0.94700370  0.61487387  1
  O  O565  1  0.73155848  0.98911675  0.51743273  1
  H  H566  1  0.93660793  0.08371320  0.24757382  1
  H  H567  1  0.87638895  0.12002028  0.08536637  1
  C  C568  1  0.87822515  0.04451034  0.15984459  1
  C  C569  1  0.95365405  0.17586685  0.03050006  1
  C  C570  1  0.91480510  0.04970152  0.24329769  1
  C  C571  1  0.81808224  0.07194793  0.38709944  1
  C  C572  1  0.84220276  0.11616854  0.40144721  1
  H  H573  1  0.86666115  0.13170194  0.34058820  1
  C  C574  1  0.86995992  0.08114305  0.07587156  1
  H  H575  1  0.82248744  0.05207329  0.31055988  1
  H  H576  1  0.83693001  0.19495469  0.22202907  1
  C  C577  1  0.92108772  0.21381182  0.05092143  1
  C  C578  1  0.93593613  0.21013772  0.24293370  1
  C  C579  1  0.96680196  0.16877276  0.21939958  1
  C  C580  1  0.78679284  0.05271057  0.46748418  1
  C  C581  1  0.95970971  0.02056897  0.39213644  1
  C  C582  1  0.92060332  0.01165345  0.31789811  1
  O  O583  1  0.77240807  0.01223524  0.14333017  1
  C  C584  1  0.97592670  0.15281967  0.11939766  1
  C  C585  1  0.91082258  0.23031052  0.15475810  1
  C  C586  1  0.76583463  0.00117779  0.45103493  1
  H  H587  1  0.82476983  0.23424872  0.43622598  1
  H  H588  1  0.92953017  0.22269436  0.32451020  1
  H  H589  1  0.75578393  0.12601165  0.01371515  1
  C  C590  1  0.83316023  0.23792283  0.22264197  1
  C  C591  1  0.86001022  0.22911493  0.47880941  1
  C  C592  1  0.99126956  0.06374491  0.39617038  1
  H  H593  1  0.98307323  0.14640185  0.29043220  1
  C  C594  1  0.75517656  0.23647618  0.34244518  1
  C  C595  1  0.98199650  0.43236033  0.18872104  1
  C  C596  1  0.75011668  0.26286090  0.43854450  1
  C  C597  1  0.87973600  0.32507859  0.48199203  1
  C  C598  1  0.76873941  0.48800751  0.19560710  1
  C  C599  1  0.95642471  0.40888978  0.26985221  1
  C  C600  1  0.79103994  0.26089014  0.26606964  1
  H  H601  1  0.75873096  0.33337686  0.29381438  1
  C  C602  1  0.89934814  0.35526212  0.40116793  1
  H  H603  1  0.96858702  0.37312947  0.29423923  1
  H  H604  1  0.78610374  0.48942241  0.02265200  1
  C  C605  1  0.91461394  0.43312051  0.31864751  1
  C  C606  1  0.77024325  0.45996296  0.29123149  1
  C  C607  1  0.88766644  0.40582426  0.40194571  1
  O  O608  1  0.89920206  0.34552686  0.10195496  1
  H  H609  1  0.86538219  0.49533981  0.30332860  1
  H  H610  1  0.81945912  0.40386262  0.02572837  1
  C  C611  1  0.82229864  0.33885475  0.19121108  1
  C  C612  1  0.94504966  0.31818370  0.05798975  1
  H  H613  1  0.76462545  0.29949005  0.44397154  1
  C  C614  1  0.90177603  0.48131538  0.27874724  1
  C  C615  1  0.86559021  0.31785737  0.14640705  1
  C  C616  1  0.80698208  0.39269065  0.19295901  1
  C  C617  1  0.78966959  0.41210311  0.29242657  1
  C  C618  1  0.86809210  0.26568843  0.17208715  1
  C  C619  1  0.96693367  0.47875884  0.15435933  1
  O  O620  1  0.85224073  0.47968497  0.46832801  1
  C  C621  1  0.78826466  0.31267558  0.25466895  1
  H  H622  1  0.79912191  0.38905683  0.36258843  1
  C  C623  1  0.80698011  0.42142702  0.09973466  1
  H  H624  1  0.75788475  0.47798239  0.36702137  1
  H  H625  1  0.92707792  0.28888356  0.01094355  1
  H  H626  1  0.96177772  0.30075760  0.13291207  1
  C  C627  1  0.78761896  0.46941341  0.09747469  1
  C  C628  1  0.85837921  0.43049343  0.48022120  1
  H  H629  1  0.92348064  0.33860801  0.34378855  1
  C  C630  1  0.89368129  0.26897584  0.48707254  1
  H  H631  1  0.98710142  0.38337962  0.03876600  1
  O  O632  1  0.93150079  0.12474703  0.60749551  1
  C  C633  1  0.78549003  0.07317519  0.84118694  1
  C  C634  1  0.82302113  0.09046436  0.91242072  1
  O  O635  1  0.89381316  0.17448513  0.83864355  1
  C  C636  1  0.91495728  0.11837291  0.83015297  1
  C  C637  1  0.85137180  0.18519870  0.88481576  1
  H  H638  1  0.88978104  0.10051312  0.77351248  1
  C  C639  1  0.96907605  0.10740859  0.80518378  1
  C  C640  1  0.94918265  0.21099239  0.57863370  1
  H  H641  1  0.86248101  0.08666865  0.62895719  1
  H  H642  1  0.90371028  0.10415771  0.91325727  1
  C  C643  1  0.91822703  0.16999424  0.56655094  1
  C  C644  1  0.89938452  0.08122568  0.59105758  1
  H  H645  1  0.79378472  0.14653321  0.65367158  1
  C  C646  1  0.81955808  0.14695587  0.92247537  1
  H  H647  1  0.98524941  0.08178312  0.86922998  1
  C  C648  1  0.91504879  0.02709689  0.62232689  1
  C  C649  1  0.77049757  0.02322868  0.84032908  1
  C  C650  1  0.99732213  0.23944471  0.74247577  1
  C  C651  1  0.83407374  0.23446434  0.90100524  1
  H  H652  1  0.92343838  0.02711157  0.70598038  1
  H  H653  1  0.99223408  0.14272102  0.80090650  1
  C  C654  1  0.99330130  0.20702239  0.65441800  1
  H  H655  1  0.88416863  0.24736850  0.69864371  1
  H  H656  1  0.97214069  0.08822998  0.72505592  1
  H  H657  1  0.84832728  0.01694257  0.98374742  1
  C  C658  1  0.79829125  0.12547792  0.57898729  1
  C  C659  1  0.77614687  0.07812780  0.56119661  1
  H  H660  1  0.76521608  0.09775132  0.78842922  1
  C  C661  1  0.79383263  0.24685005  0.96150084  1
  C  C662  1  0.84653983  0.05837325  0.98981098  1
  H  H663  1  0.95858626  0.16419927  0.95023555  1
  C  C664  1  0.77915769  0.15524498  0.98097037  1
  H  H665  1  0.94917694  0.01580605  0.58108223  1
  H  H666  1  0.75485335  0.05942961  0.61894730  1
  H  H667  1  0.90035886  0.22933144  0.98346918  1
  C  C668  1  0.87240772  0.18073254  0.51887239  1
  H  H669  1  0.89547356  0.08260212  0.50468246  1
  C  C670  1  0.83406905  0.14126682  0.50296923  1
  C  C671  1  0.76685626  0.20681777  0.99811028  1
  H  H672  1  0.88867001  0.39812120  0.93798448  1
  O  O673  1  0.98558701  0.38848580  0.67234138  1
  H  H674  1  0.86000998  0.42736726  0.76112579  1
  H  H675  1  0.99461901  0.45966405  0.62372532  1
  H  H676  1  0.78326658  0.28537469  0.96735084  1
  C  C677  1  0.83876692  0.39728510  0.55619659  1
  H  H678  1  0.93675053  0.31851673  0.65134649  1
  C  C679  1  0.93943447  0.25668189  0.53267259  1
  H  H680  1  0.96877731  0.26718344  0.76107562  1
  H  H681  1  0.77501589  0.32773321  0.83446686  1
  H  H682  1  0.79880290  0.47087628  0.87493434  1
  C  C683  1  0.78740175  0.45545668  0.80312501  1
  H  H684  1  0.78451785  0.48893370  0.55352551  1
  C  C685  1  0.85849998  0.32413341  0.91366699  1
  C  C686  1  0.85797960  0.27947627  0.85115227  1
  C  C687  1  0.75716005  0.28200353  0.69084985  1
  C  C688  1  0.84755405  0.34586728  0.55709208  1
  C  C689  1  0.94858226  0.40283086  0.75005477  1
  C  C690  1  0.75206154  0.41688548  0.61120184  1
  C  C691  1  0.91181614  0.32109985  0.72312448  1
  H  H692  1  0.96870131  0.28470631  0.54383663  1
  C  C693  1  0.88716786  0.36495263  0.88511389  1
  C  C694  1  0.80256632  0.41543977  0.63902697  1
  O  O695  1  0.94852440  0.44431391  0.78656517  1
  H  H696  1  0.79503999  0.26357200  0.67915999  1
  C  C697  1  0.91468181  0.36323976  0.79202476  1
  H  H698  1  0.83354861  0.32174904  0.62171461  1
  C  C699  1  0.82105318  0.43031561  0.74175251  1
  C  C700  1  0.88568177  0.27972509  0.75362106  1
  H  H701  1  0.97535910  0.35313464  0.91559432  1
  H  H702  1  0.83477584  0.32570522  0.98710068  1
  C  C703  1  0.98585735  0.34604536  0.99733910  1
  C  C704  1  0.95011245  0.65698600  0.27969087  1
  C  C705  1  0.93852560  0.61335368  0.35064368  1
  C  C706  1  0.91749368  0.66973859  0.19792611  1
  H  H707  1  0.88193754  0.64910480  0.18824195  1
  O  O708  1  0.90249047  0.58818928  0.33142761  1
  C  C709  1  0.92482723  0.71378739  0.14531144  1
  O  O710  1  0.96672247  0.60301201  0.43025277  1
  C  C711  1  0.99301083  0.68379162  0.30273735  1
  H  H712  1  0.89512938  0.72722692  0.08950881  1
  H  H713  1  0.84074263  0.72897634  0.38507662  1
  C  C714  1  0.96848015  0.74183318  0.15700124  1
  H  H715  1  0.79079667  0.56265277  0.41836372  1
  H  H716  1  0.92490844  0.71691572  0.44136443  1
  C  C717  1  0.99334571  0.50281317  0.05956476  1
  C  C718  1  0.92596361  0.50602718  0.19245203  1
  H  H719  1  0.91086493  0.53976197  0.16295879  1
  O  O720  1  0.97731815  0.53539051  0.00485703  1
  O  O721  1  0.96521101  0.93523142  0.47615179  1
  C  C722  1  0.80615515  0.92792853  0.10957291  1
  C  C723  1  0.97814441  0.88885849  0.04734251  1
  C  C724  1  0.99480450  0.87535497  0.28394031  1
  C  C725  1  0.85896711  0.76053714  0.42090737  1
  O  O726  1  0.76572427  0.77739636  0.36208071  1
  H  H727  1  0.97789438  0.91242757  0.27740913  1
  C  C728  1  0.90781146  0.75360295  0.45297152  1
  O  O729  1  0.76024065  0.85323140  0.42723687  1
  C  C730  1  0.76120196  0.89528490  0.08995126  1
  C  C731  1  0.93128826  0.82164724  0.12685463  1
  H  H732  1  0.93691447  0.97667626  0.13414539  1
  O  O733  1  0.77801570  0.97540913  0.37877359  1
  H  H734  1  0.83898050  0.85406575  0.09606655  1
  C  C735  1  0.93421071  0.87227571  0.09197409  1
  C  C736  1  0.80824157  0.97942363  0.13381476  1
  H  H737  1  0.84313914  0.88321978  0.49038543  1
  C  C738  1  0.78448040  0.81289100  0.41060261  1
  H  H739  1  0.89845605  0.97789385  0.32766608  1
  H  H740  1  0.96986962  0.85033784  0.33266824  1
  C  C741  1  0.97776110  0.97605454  0.44958343  1
  C  C742  1  0.97204057  0.79306717  0.11022344  1
  C  C743  1  0.89418969  0.91189269  0.11118221  1
  C  C744  1  0.86209578  0.84896124  0.48068852  1
  H  H745  1  0.99832251  0.85895380  0.20394194  1
  H  H746  1  0.89656024  0.80893828  0.16483320  1
  C  C747  1  0.85819748  0.99297767  0.14187367  1
  C  C748  1  0.83633340  0.80727399  0.43870763  1
  C  C749  1  0.84427842  0.89419761  0.09844779  1
  C  C750  1  0.90077899  0.96120096  0.13551080  1
  H  H751  1  0.99515782  0.86513584  0.49871973  1
  H  H752  1  0.97780272  0.92852959  0.01809736  1
  C  C753  1  0.94721685  0.61275563  0.68361727  1
  C  C754  1  0.97778271  0.66163133  0.69534443  1
  H  H755  1  0.91171640  0.61703742  0.72657151  1
  H  H756  1  0.96305279  0.57553395  0.71330309  1
  H  H757  1  0.93516973  0.60636649  0.60141640  1
  O  O758  1  0.96357278  0.70410140  0.62234691  1
  H  H759  1  0.84362179  0.50683989  0.61059385  1
  H  H760  1  0.98004071  0.67810613  0.77844244  1
  H  H761  1  0.77213822  0.57331871  0.55514111  1
  C  C762  1  0.99261991  0.74352295  0.62020141  1
  H  H763  1  0.99859639  0.74831224  0.87574761  1
  C  C764  1  0.82131320  0.50769656  0.53648879  1
  H  H765  1  0.83257311  0.59192824  0.51476615  1
  C  C766  1  0.80262299  0.56039444  0.50535335  1
  H  H767  1  0.92791206  0.87281703  0.56208769  1
  H  H768  1  0.79199982  0.99034238  0.86797607  1
  H  H769  1  0.88833928  0.99659445  0.60354783  1
  C  C770  1  0.93090460  0.79314130  0.51124019  1
  H  H771  1  0.76705218  0.92758208  0.92613814  1
  C  C772  1  0.90917205  0.84166020  0.51911137  1
  C  C773  1  0.98004093  0.78511056  0.55600507  1
