# generated using pymatgen
data_CuH15C22O5
_symmetry_space_group_name_H-M   'P 1'
_cell_length_a   31.98760124
_cell_length_b   23.48997367
_cell_length_c   12.61081831
_cell_angle_alpha   90.00000000
_cell_angle_beta   90.00000000
_cell_angle_gamma   90.00000000
_symmetry_Int_Tables_number   1
_chemical_formula_structural   CuH15C22O5
_chemical_formula_sum   'Cu18 H270 C396 O90'
_cell_volume   9475.61642480
_cell_formula_units_Z   18
loop_
 _symmetry_equiv_pos_site_id
 _symmetry_equiv_pos_as_xyz
  1  'x, y, z'
loop_
 _atom_site_type_symbol
 _atom_site_label
 _atom_site_symmetry_multiplicity
 _atom_site_fract_x
 _atom_site_fract_y
 _atom_site_fract_z
 _atom_site_occupancy
  O  O0  1  0.01849044  0.42215001  0.05095120  1
  C  C1  1  0.12097402  0.20245708  0.02218111  1
  H  H2  1  0.17499798  0.49067562  0.15222754  1
  H  H3  1  0.01052014  0.24429885  0.13242871  1
  C  C4  1  0.07575423  0.12331834  0.02775637  1
  H  H5  1  0.20597082  0.00809088  0.16070360  1
  O  O6  1  0.09627265  0.07051075  0.27736927  1
  O  O7  1  0.13788241  0.01296548  0.37016324  1
  O  O8  1  0.00835490  0.02002226  0.22773786  1
  O  O9  1  0.01312687  0.15272907  0.24365955  1
  H  H10  1  0.16964618  0.22477227  0.40866631  1
  C  C11  1  0.24106103  0.43741257  0.36118242  1
  H  H12  1  0.22681145  0.49837601  0.14676121  1
  C  C13  1  0.21011279  0.35606544  0.45415996  1
  C  C14  1  0.20490121  0.30165242  0.40972851  1
  C  C15  1  0.11781012  0.13720012  0.03647436  1
  Cu  Cu16  1  0.03661397  0.07889750  0.28088448  1
  H  H17  1  0.21684427  0.30946649  0.09200412  1
  C  C18  1  0.17263105  0.00298545  0.13653182  1
  C  C19  1  0.14145073  0.01657148  0.18427504  1
  C  C20  1  0.12113030  0.02864487  0.28716608  1
  C  C21  1  0.00390816  0.03635592  0.48165543  1
  C  C22  1  0.24731960  0.39764844  0.44078202  1
  H  H23  1  0.21065697  0.43615850  0.31758975  1
  C  C24  1  0.14364307  0.03966743  0.06193389  1
  C  C25  1  0.15095983  0.10242899  0.04936113  1
  O  O26  1  0.05065402  0.16407611  0.01481712  1
  H  H27  1  0.06195701  0.07913446  0.03308472  1
  H  H28  1  0.22854352  0.28216118  0.35501605  1
  H  H29  1  0.18313103  0.12084040  0.06177628  1
  C  C30  1  0.07850645  0.21711456  0.01375972  1
  H  H31  1  0.05916853  0.00653879  0.07656875  1
  H  H32  1  0.11852797  0.46566184  0.03319980  1
  C  C33  1  0.17420101  0.26534301  0.44573459  1
  O  O34  1  0.24257031  0.18684313  0.06120968  1
  C  C35  1  0.21429918  0.33653953  0.01965453  1
  H  H36  1  0.18616962  0.22985109  0.02443491  1
  C  C37  1  0.15271686  0.24446454  0.01507805  1
  H  H38  1  0.12171550  0.01831035  0.00437664  1
  C  C39  1  0.14102526  0.30198223  0.99334491  1
  C  C40  1  0.05549209  0.19400001  0.79496928  1
  C  C41  1  0.11690880  0.25264128  0.57044670  1
  H  H42  1  0.08870113  0.36572193  0.98678375  1
  C  C43  1  0.02061354  0.29078639  0.98564162  1
  C  C44  1  0.13343332  0.02937985  0.81117973  1
  O  O45  1  0.05777851  0.48482337  0.92064947  1
  H  H46  1  0.06424459  0.19948339  0.71008200  1
  H  H47  1  0.01953342  0.33313172  0.83268329  1
  H  H48  1  0.01253980  0.16780140  0.60918675  1
  C  C49  1  0.14818936  0.34593203  0.55710668  1
  C  C50  1  0.24858727  0.36630598  0.98126755  1
  H  H51  1  0.22684487  0.34257940  0.61600470  1
  H  H52  1  0.18481050  0.42451861  0.55481966  1
  H  H53  1  0.07317998  0.15874315  0.83529337  1
  H  H54  1  0.00349019  0.13496761  0.77224306  1
  Cu  Cu55  1  0.13158735  0.13628209  0.61537735  1
  H  H56  1  0.12397121  0.36049775  0.61853213  1
  O  O57  1  0.01927389  0.00833114  0.90108442  1
  C  C58  1  0.09909612  0.00328640  0.76668397  1
  O  O59  1  0.07768906  0.11247013  0.64114109  1
  C  C60  1  0.17618967  0.34179988  0.96631963  1
  C  C61  1  0.20786031  0.41334763  0.85323632  1
  H  H62  1  0.24942983  0.20365124  0.61512810  1
  O  O63  1  0.11279319  0.19998421  0.54179066  1
  C  C64  1  0.06201472  0.07562204  0.57655154  1
  H  H65  1  0.14348517  0.38927827  0.84554063  1
  H  H66  1  0.06225323  0.23522994  0.83804371  1
  C  C67  1  0.20074738  0.45319710  0.76291217  1
  C  C68  1  0.17255875  0.38544120  0.88779746  1
  C  C69  1  0.21087369  0.10884704  0.55053954  1
  H  H70  1  0.06633133  0.01266767  0.78546531  1
  H  H71  1  0.13636216  0.46995648  0.82673978  1
  H  H72  1  0.01130871  0.37493861  0.60986496  1
  C  C73  1  0.15789478  0.47406680  0.75968862  1
  C  C74  1  0.22807105  0.47102664  0.68159478  1
  O  O75  1  0.18937374  0.14718246  0.59263802  1
  O  O76  1  0.08906660  0.27382745  0.62782523  1
  C  C77  1  0.14798076  0.28927616  0.51950744  1
  C  C78  1  0.01917565  0.08194930  0.54405963  1
  O  O79  1  0.08217933  0.03107825  0.55303594  1
  C  C80  1  0.00851131  0.17952841  0.80513660  1
  H  H81  1  0.19787529  0.05372110  0.86466129  1
  C  C82  1  0.18063277  0.38014223  0.52067871  1
  H  H83  1  0.23400173  0.26214757  0.76395391  1
  C  C84  1  0.24867897  0.40712663  0.89386066  1
  C  C85  1  0.17629282  0.02505069  0.81442201  1
  C  C86  1  0.06774688  0.27619100  0.99512495  1
  C  C87  1  0.09746347  0.31968687  0.98540868  1
  O  O88  1  0.19599872  0.06206659  0.51645405  1
  Cu  Cu89  1  0.13842782  0.04070308  0.52803036  1
  O  O90  1  0.17819800  0.53558982  0.40468047  1
  Cu  Cu91  1  0.15840709  0.59406413  0.31102512  1
  O  O92  1  0.20998898  0.69145934  0.15773796  1
  O  O93  1  0.05280710  0.59006159  0.25150543  1
  H  H94  1  0.17581278  0.80583220  0.28710066  1
  Cu  Cu95  1  0.03261883  0.50057572  0.04278186  1
  C  C96  1  0.22439893  0.74768503  0.21906668  1
  C  C97  1  0.21910563  0.58959751  0.16162317  1
  O  O98  1  0.07814251  0.63519010  0.44220718  1
  C  C99  1  0.18501030  0.57486900  0.08538423  1
  C  C100  1  0.16892501  0.61255153  0.00273283  1
  O  O101  1  0.13810568  0.66535394  0.37842707  1
  H  H102  1  0.22683959  0.73087277  0.30219767  1
  O  O103  1  0.11399591  0.53663346  0.47881239  1
  C  C104  1  0.19795447  0.90729966  0.37367127  1
  C  C105  1  0.06521129  0.83890699  0.12928244  1
  C  C106  1  0.22924345  0.64661522  0.19372554  1
  C  C107  1  0.04332697  0.87223141  0.19908352  1
  H  H108  1  0.17786542  0.91892085  0.30768307  1
  Cu  Cu109  1  0.08329589  0.56371197  0.36562425  1
  H  H110  1  0.02296881  0.99861193  0.46973423  1
  C  C111  1  0.08798858  0.92683886  0.02641392  1
  H  H112  1  0.06578601  0.79084959  0.13432389  1
  C  C113  1  0.01439598  0.96562571  0.24256962  1
  O  O114  1  0.01089634  0.52549067  0.17570444  1
  C  C115  1  0.23059933  0.95583070  0.39283106  1
  C  C116  1  0.19166629  0.79587831  0.20957757  1
  C  C117  1  0.04277167  0.93195844  0.17921074  1
  H  H118  1  0.22024452  0.90989798  0.04652549  1
  C  C119  1  0.16312673  0.52276330  0.09106163  1
  C  C120  1  0.15460617  0.52798861  0.48396545  1
  H  H121  1  0.20906061  0.83660578  0.18134070  1
  H  H122  1  0.02360468  0.85555163  0.26477151  1
  H  H123  1  0.16303365  0.86842727  0.08229233  1
  C  C124  1  0.06464219  0.95991484  0.09600581  1
  C  C125  1  0.23549772  0.53684456  0.18984252  1
  H  H126  1  0.01905496  0.66803507  0.34069488  1
  C  C127  1  0.01619195  0.57264347  0.22248700  1
  H  H128  1  0.21563766  0.86703973  0.35726451  1
  C  C129  1  0.11076328  0.66790568  0.44784631  1
  C  C130  1  0.08854139  0.86692251  0.04714100  1
  H  H131  1  0.16972303  0.77667904  0.14730210  1
  H  H132  1  0.21415095  0.99217089  0.43291227  1
  C  C133  1  0.24348061  0.87691641  0.04148873  1
  C  C134  1  0.23559301  0.82115278  0.00261999  1
  C  C135  1  0.15808073  0.83725056  0.01872321  1
  H  H136  1  0.24687799  0.65866215  0.49164491  1
  C  C137  1  0.13160013  0.50899802  0.02257717  1
  H  H138  1  0.17664164  0.89704884  0.44493144  1
  H  H139  1  0.02710534  0.65812354  0.04334358  1
  C  C140  1  0.01460656  0.69697709  0.00397656  1
  C  C141  1  0.08358402  0.68364226  0.62697309  1
  H  H142  1  0.10384302  0.94524051  0.95187919  1
  H  H143  1  0.13061037  0.63058203  0.86994077  1
  C  C144  1  0.21904914  0.82092100  0.56222743  1
  C  C145  1  0.09192817  0.69923016  0.73053708  1
  C  C146  1  0.21249015  0.86447526  0.65368198  1
  C  C147  1  0.19061289  0.80566758  0.97708899  1
  H  H148  1  0.06837585  0.69384141  0.79066580  1
  C  C149  1  0.18316670  0.97338036  0.75170295  1
  C  C150  1  0.07917090  0.52745625  0.88818326  1
  C  C151  1  0.03861422  0.94151902  0.66184868  1
  H  H152  1  0.00228298  0.68843352  0.92101880  1
  C  C153  1  0.15924669  0.74493799  0.67644622  1
  C  C154  1  0.12732382  0.73374828  0.75441226  1
  C  C155  1  0.15304631  0.72302264  0.57487833  1
  C  C156  1  0.13703693  0.76418078  0.85627110  1
  O  O157  1  0.06807246  0.54994351  0.80032072  1
  H  H158  1  0.05026281  0.87597659  0.88001179  1
  H  H159  1  0.22719696  0.65296133  0.79053265  1
  C  C160  1  0.10126937  0.79526065  0.89989247  1
  H  H161  1  0.20094550  0.74139630  0.85291440  1
  C  C162  1  0.11580301  0.69198142  0.55286058  1
  H  H163  1  0.18812927  0.76806877  0.69359098  1
  C  C164  1  0.04628455  0.82753997  0.60518146  1
  C  C165  1  0.03324562  0.83629692  0.89824475  1
  C  C166  1  0.07722751  0.91301382  0.67897950  1
  C  C167  1  0.11554082  0.54644208  0.94496184  1
  O  O168  1  0.16518089  0.88380373  0.67083325  1
  C  C169  1  0.00457661  0.91484492  0.61316845  1
  C  C170  1  0.21590862  0.50296874  0.59487598  1
  H  H171  1  0.03119072  0.82921194  0.98336082  1
  C  C172  1  0.17886832  0.76785357  0.89260023  1
  O  O173  1  0.06211809  0.79004485  0.86045673  1
  H  H174  1  0.11207817  0.83339561  0.65700151  1
  C  C175  1  0.11628590  0.82940603  0.97980241  1
  C  C176  1  0.11122092  0.95001747  0.71804183  1
  H  H177  1  0.20626752  0.59010216  0.70802013  1
  C  C178  1  0.00905579  0.85878297  0.58674443  1
  C  C179  1  0.15422109  0.93184038  0.71648055  1
  H  H180  1  0.05521275  0.66246586  0.60253538  1
  C  C181  1  0.08094170  0.85395142  0.64840150  1
  C  C182  1  0.13742797  0.59941016  0.93045084  1
  H  H183  1  0.03919165  0.98738577  0.67172541  1
  H  H184  1  0.22041292  0.90836631  0.87008555  1
  C  C185  1  0.23021984  0.96982818  0.74878446  1
  H  H186  1  0.23966166  0.50685305  0.53280122  1
  H  H187  1  0.04737377  0.78469584  0.57366879  1
  H  H188  1  0.22083251  0.84763587  0.73010260  1
  Cu  Cu189  1  0.01547938  0.54283861  0.73763953  1
  H  H190  1  0.23311172  0.90243279  0.64776265  1
  H  H191  1  0.11412929  0.51863002  0.66852003  1
  H  H192  1  0.22848790  0.77787535  0.58493588  1
  H  H193  1  0.23886143  0.52198158  0.82863307  1
  H  H194  1  0.17835664  0.72927621  0.51305557  1
  C  C195  1  0.22497864  0.60678303  0.77573358  1
  C  C196  1  0.24399986  0.92447557  0.81317839  1
  H  H197  1  0.24120663  0.83799203  0.50710967  1
  C  C198  1  0.24183427  0.57007790  0.84176685  1
  C  C199  1  0.17321851  0.51352684  0.58341646  1
  C  C200  1  0.14602857  0.50285547  0.66999203  1
  H  H201  1  0.18312993  0.65522163  0.99296441  1
  H  H202  1  0.04251619  0.72560225  0.98684500  1
  H  H203  1  0.18887856  0.81806616  0.52219549  1
  H  H204  1  0.42380207  0.12848736  0.17440773  1
  C  C205  1  0.45574840  0.14621475  0.18674690  1
  C  C206  1  0.27927570  0.08319197  0.47552865  1
  H  H207  1  0.34798517  0.21393997  0.26949445  1
  C  C208  1  0.31242698  0.43622274  0.48081873  1
  H  H209  1  0.38308309  0.28392423  0.05320080  1
  C  C210  1  0.48151084  0.15103807  0.09824668  1
  C  C211  1  0.27086105  0.48153275  0.34760630  1
  H  H212  1  0.25562196  0.39274980  0.18236239  1
  C  C213  1  0.35523482  0.30497853  0.08586221  1
  C  C214  1  0.34305160  0.16751422  0.25977545  1
  C  C215  1  0.31316385  0.34865121  0.23016701  1
  C  C216  1  0.40112220  0.15622011  0.38209478  1
  C  C217  1  0.28590809  0.35003854  0.04903090  1
  C  C218  1  0.38114091  0.16209951  0.48024133  1
  H  H219  1  0.31222623  0.36428201  0.31608835  1
  C  C220  1  0.28157014  0.36438297  0.15723223  1
  C  C221  1  0.38125772  0.30198771  0.27035891  1
  C  C222  1  0.32799431  0.16373021  0.14101831  1
  H  H223  1  0.29695646  0.18539896  0.13195750  1
  O  O224  1  0.41349030  0.27540435  0.24046825  1
  O  O225  1  0.37823620  0.13814130  0.28869685  1
  C  C226  1  0.47044579  0.16328568  0.28935115  1
  O  O227  1  0.37739505  0.31207566  0.36950684  1
  C  C228  1  0.34864989  0.31951642  0.19465209  1
  C  C229  1  0.32052068  0.09842188  0.45715944  1
  H  H230  1  0.31662061  0.15417496  0.31553255  1
  C  C231  1  0.44367097  0.16639898  0.38479916  1
  Cu  Cu232  1  0.46585308  0.27525268  0.31672821  1
  H  H233  1  0.35008465  0.18581579  0.08962984  1
  C  C234  1  0.30744872  0.48035906  0.40755889  1
  H  H235  1  0.32476401  0.11947564  0.11775045  1
  C  C236  1  0.46517936  0.18763444  0.48065713  1
  H  H237  1  0.40016186  0.00338811  0.21188985  1
  H  H238  1  0.28254894  0.04644061  0.11477108  1
  Cu  Cu239  1  0.41983830  0.31980186  0.46501963  1
  H  H240  1  0.34284549  0.07034390  0.41499311  1
  H  H241  1  0.26350148  0.04236098  0.44129073  1
  H  H242  1  0.46926207  0.13781025  0.01984520  1
  C  C243  1  0.32330004  0.31907077  0.01697318  1
  C  C244  1  0.25608365  0.14643118  0.01124385  1
  C  C245  1  0.28425411  0.00492523  0.06823415  1
  H  H246  1  0.49988335  0.19456100  0.48762008  1
  H  H247  1  0.26010283  0.45839534  0.68971250  1
  C  C248  1  0.43976278  0.19486810  0.56405271  1
  O  O249  1  0.47352885  0.40785154  0.77942562  1
  O  O250  1  0.36075958  0.25887942  0.78266516  1
  H  H251  1  0.38637047  0.18780265  0.65911099  1
  C  C252  1  0.41063592  0.49598869  0.61032127  1
  C  C253  1  0.38749301  0.24334752  0.82219343  1
  C  C254  1  0.27157336  0.10461994  0.95164020  1
  C  C255  1  0.46157505  0.44936903  0.73188612  1
  H  H256  1  0.35651940  0.34578661  0.58618945  1
  C  C257  1  0.35170698  0.43820537  0.54150821  1
  C  C258  1  0.32247568  0.43736786  0.89292624  1
  O  O259  1  0.28932191  0.36142451  0.59365443  1
  C  C260  1  0.42637424  0.44540622  0.65634942  1
  H  H261  1  0.32690090  0.30629887  0.93504230  1
  C  C262  1  0.36994999  0.38836983  0.59429565  1
  C  C263  1  0.28285022  0.39445066  0.51040818  1
  C  C264  1  0.40699069  0.39148352  0.65193146  1
  H  H265  1  0.41801334  0.35220382  0.69565503  1
  H  H266  1  0.32779729  0.39144189  0.89986270  1
  C  C267  1  0.28775970  0.05779142  0.90025133  1
  C  C268  1  0.40096426  0.18199103  0.58040173  1
  O  O269  1  0.27815820  0.43650788  0.84910582  1
  H  H270  1  0.25122222  0.04069586  0.63336045  1
  C  C271  1  0.37397992  0.49130842  0.55317247  1
  C  C272  1  0.35764160  0.47206657  0.83447559  1
  O  O273  1  0.47744132  0.49944508  0.74704637  1
  H  H274  1  0.38975997  0.46728512  0.86889848  1
  H  H275  1  0.35794578  0.45854669  0.74756260  1
  H  H276  1  0.29369757  0.05406294  0.81462626  1
  O  O277  1  0.47211468  0.32427877  0.53150154  1
  C  C278  1  0.25513551  0.12372385  0.53059528  1
  C  C279  1  0.26968892  0.17528998  0.57370191  1
  H  H280  1  0.32434576  0.22953080  0.58673825  1
  C  C281  1  0.31088171  0.19141749  0.55810240  1
  C  C282  1  0.25782857  0.29444896  0.74298253  1
  C  C283  1  0.25783802  0.31863189  0.63054317  1
  H  H284  1  0.25645943  0.28569061  0.56561087  1
  H  H285  1  0.25334660  0.32958546  0.80093772  1
  H  H286  1  0.28965809  0.27980291  0.75583595  1
  C  C287  1  0.25892025  0.00224632  0.68161044  1
  H  H288  1  0.32179024  0.00652993  0.62921839  1
  C  C289  1  0.29371297  0.00735425  0.96093311  1
  H  H290  1  0.31353159  0.45543882  0.97218125  1
  C  C291  1  0.33569921  0.14968027  0.50056508  1
  C  C292  1  0.32720659  0.76635864  0.36761979  1
  C  C293  1  0.30769167  0.72699591  0.30364396  1
  H  H294  1  0.31491297  0.72546863  0.21814041  1
  C  C295  1  0.32078570  0.85787589  0.06700576  1
  H  H296  1  0.34480507  0.93357039  0.21192634  1
  O  O297  1  0.25177884  0.98505418  0.29541476  1
  H  H298  1  0.34926503  0.79796406  0.33144330  1
  H  H299  1  0.29414249  0.58898893  0.38930169  1
  O  O300  1  0.35737351  0.87393698  0.09840138  1
  H  H301  1  0.26132751  0.90523316  0.26250415  1
  C  C302  1  0.27852168  0.68705723  0.34919780  1
  C  C303  1  0.28340353  0.89240292  0.06755899  1
  C  C304  1  0.36525329  0.93421040  0.14290437  1
  H  H305  1  0.33133530  0.51083145  0.38835918  1
  C  C306  1  0.27085448  0.68645295  0.45993191  1
  C  C307  1  0.27961026  0.95186542  0.12191328  1
  C  C308  1  0.25846981  0.64189466  0.28057996  1
  C  C309  1  0.26147694  0.53446110  0.28353420  1
  H  H310  1  0.25595729  0.93784136  0.44318851  1
  C  C311  1  0.27211787  0.58887891  0.32125599  1
  H  H312  1  0.34542327  0.95223436  0.07517336  1
  H  H313  1  0.42293024  0.98059809  0.09271780  1
  C  C314  1  0.40763463  0.96388992  0.16601035  1
  H  H315  1  0.25585121  0.76645399  0.19496122  1
  H  H316  1  0.43300047  0.93754764  0.20796113  1
  C  C317  1  0.31021687  0.80471930  0.01679534  1
  C  C318  1  0.26343941  0.94875327  0.22574858  1
  C  C319  1  0.31891950  0.76239163  0.47619400  1
  C  C320  1  0.38464866  0.77535179  0.00398837  1
  H  H321  1  0.45136034  0.74713024  0.00107733  1
  H  H322  1  0.39411171  0.81921142  0.01399518  1
  H  H323  1  0.26230902  0.58407499  0.90654011  1
  H  H324  1  0.28041260  0.72928316  0.60557078  1
  O  O325  1  0.36610878  0.83969993  0.52913267  1
  H  H326  1  0.26512350  0.73738904  0.96636115  1
  O  O327  1  0.37812942  0.93137802  0.66013560  1
  H  H328  1  0.42751493  0.53581919  0.62107400  1
  C  C329  1  0.29824722  0.97967219  0.67500924  1
  H  H330  1  0.49213803  0.71019197  0.81141657  1
  C  C331  1  0.28995215  0.72565405  0.52558103  1
  Cu  Cu332  1  0.45451102  0.54183261  0.85871398  1
  Cu  Cu333  1  0.41171506  0.87677349  0.60227329  1
  C  C334  1  0.28421843  0.90361334  0.80902313  1
  C  C335  1  0.35429822  0.91168228  0.73019359  1
  O  O336  1  0.44966336  0.81442256  0.58586016  1
  H  H337  1  0.29829869  0.86805453  0.86265146  1
  O  O338  1  0.43221941  0.76288820  0.72918506  1
  C  C339  1  0.45900695  0.77946731  0.66140898  1
  O  O340  1  0.36834137  0.87430834  0.79499470  1
  C  C341  1  0.31088084  0.93119620  0.73605961  1
  C  C342  1  0.34245635  0.79816786  0.55219112  1
  Cu  Cu343  1  0.38171909  0.79617951  0.74865597  1
  H  H344  1  0.35249142  0.51907078  0.84029505  1
  O  O345  1  0.33560120  0.79112232  0.65032732  1
  H  H346  1  0.35770386  0.52562877  0.50582707  1
  C  C347  1  0.43827004  0.63519217  0.97503078  1
  C  C348  1  0.41677307  0.73577191  0.99248732  1
  O  O349  1  0.47590291  0.65417254  0.99380948  1
  O  O350  1  0.42965653  0.58357940  0.95774497  1
  H  H351  1  0.30748220  0.96907113  0.92146464  1
  C  C352  1  0.33337569  0.69964312  0.97842475  1
  H  H353  1  0.35713960  0.61726364  0.94907883  1
  C  C354  1  0.40649585  0.67853769  0.97539603  1
  H  H355  1  0.29950304  0.68821463  0.96971164  1
  C  C356  1  0.26960788  0.78335004  0.99362902  1
  C  C357  1  0.36373068  0.66082687  0.96027724  1
  C  C358  1  0.34180244  0.75976506  0.99895381  1
  O  O359  1  0.67719915  0.10286828  0.09293084  1
  Cu  Cu360  1  0.63052220  0.14805588  0.07084755  1
  C  C361  1  0.67860215  0.06043229  0.15659271  1
  H  H362  1  0.71524089  0.14445084  0.20010239  1
  H  H363  1  0.62515525  0.39828747  0.36448665  1
  C  C364  1  0.71740263  0.12000648  0.27303046  1
  C  C365  1  0.69793831  0.06672766  0.26584260  1
  C  C366  1  0.70605843  0.04774545  0.45136566  1
  O  O367  1  0.71600045  0.35662685  0.10023610  1
  C  C368  1  0.52203527  0.16916250  0.11819608  1
  O  O369  1  0.64187997  0.19554115  0.18753714  1
  H  H370  1  0.66704641  0.29093051  0.21669249  1
  O  O371  1  0.58694992  0.19381940  0.04251662  1
  C  C372  1  0.54081577  0.18068917  0.21765217  1
  C  C373  1  0.73488376  0.13559805  0.37171752  1
  C  C374  1  0.57075187  0.36057154  0.42769930  1
  C  C375  1  0.54945476  0.17801248  0.02252334  1
  C  C376  1  0.53473163  0.36555113  0.48753010  1
  C  C377  1  0.64558742  0.18623117  0.28804651  1
  H  H378  1  0.57346380  0.32099265  0.38693720  1
  C  C379  1  0.73275439  0.31103802  0.09000488  1
  O  O380  1  0.50883917  0.28048604  0.40651121  1
  C  C381  1  0.59994756  0.40564245  0.42269108  1
  C  C382  1  0.67411656  0.28493527  0.30134366  1
  H  H383  1  0.57411313  0.19557088  0.22593391  1
  O  O384  1  0.63024497  0.14415027  0.32737101  1
  C  C385  1  0.69501875  0.02660152  0.35024778  1
  H  H386  1  0.67610251  0.17828578  0.49078117  1
  C  C387  1  0.66678296  0.23180625  0.35161597  1
  C  C388  1  0.68325049  0.33144926  0.36523894  1
  H  H389  1  0.68410804  0.37287525  0.32477789  1
  C  C390  1  0.67779531  0.22306358  0.45779918  1
  C  C391  1  0.72846704  0.10006941  0.46023500  1
  C  C392  1  0.59152156  0.45684156  0.47479537  1
  H  H393  1  0.52797038  0.18400158  0.38322221  1
  O  O394  1  0.65147760  0.45809301  0.29320432  1
  C  C395  1  0.72097900  0.26460077  0.00925590  1
  C  C396  1  0.51443479  0.17511010  0.30456562  1
  H  H397  1  0.73038793  0.41609846  0.44002731  1
  C  C398  1  0.68671511  0.32497857  0.47680957  1
  C  C399  1  0.50353520  0.31925140  0.47551410  1
  O  O400  1  0.66032685  0.01674279  0.14095867  1
  H  H401  1  0.74577924  0.18038839  0.38291814  1
  C  C402  1  0.73818158  0.21027258  0.01475025  1
  H  H403  1  0.64774233  0.49768202  0.13267363  1
  C  C404  1  0.64946209  0.49598576  0.35489935  1
  O  O405  1  0.67357215  0.12732819  0.63502682  1
  H  H406  1  0.64601343  0.19157833  0.72873198  1
  C  C407  1  0.64633406  0.14607160  0.72500624  1
  H  H408  1  0.53220452  0.44803550  0.83975646  1
  H  H409  1  0.67189250  0.25790542  0.76729528  1
  O  O410  1  0.62822570  0.35089107  0.67272898  1
  C  C411  1  0.69239532  0.27955054  0.92912860  1
  C  C412  1  0.56360996  0.46591897  0.82893485  1
  C  C413  1  0.69117285  0.24354489  0.84165478  1
  H  H414  1  0.63984256  0.27127000  0.61841082  1
  C  C415  1  0.71207121  0.42151508  0.51088734  1
  H  H416  1  0.56508973  0.24680296  0.54112786  1
  C  C417  1  0.73741556  0.17348614  0.92794205  1
  C  C418  1  0.69129365  0.26863268  0.52012394  1
  C  C419  1  0.61313113  0.30026380  0.60341984  1
  H  H420  1  0.66547848  0.13466364  0.79334583  1
  H  H421  1  0.57990815  0.14644049  0.68926372  1
  C  C422  1  0.71420064  0.13793291  0.64812169  1
  H  H423  1  0.70231935  0.26050809  0.60351416  1
  H  H424  1  0.58225001  0.40290758  0.71997399  1
  C  C425  1  0.66440423  0.44080734  0.68173426  1
  C  C426  1  0.68603533  0.37799269  0.54782084  1
  H  H427  1  0.67745891  0.32101622  0.92416079  1
  C  C428  1  0.63419230  0.46525025  0.75395409  1
  C  C429  1  0.74332687  0.12378787  0.56787096  1
  C  C430  1  0.56979849  0.27240343  0.61650617  1
  C  C431  1  0.59246683  0.44174008  0.76087488  1
  C  C432  1  0.65768492  0.38440992  0.63442391  1
  C  C433  1  0.60208781  0.11975981  0.73149997  1
  H  H434  1  0.60162165  0.07625628  0.69516431  1
  C  C435  1  0.71807915  0.19369272  0.83232826  1
  H  H436  1  0.54552730  0.30790115  0.61924788  1
  H  H437  1  0.59187676  0.11582608  0.81572711  1
  O  O438  1  0.53789306  0.16565760  0.93356151  1
  C  C439  1  0.73497664  0.16689637  0.73091714  1
  C  C440  1  0.69551608  0.48221007  0.65439408  1
  C  C441  1  0.72099705  0.47266380  0.56775814  1
  H  H442  1  0.56497576  0.24501099  0.69069985  1
  H  H443  1  0.50056947  0.42179742  0.59418583  1
  H  H444  1  0.70076140  0.02264226  0.52441141  1
  H  H445  1  0.61583515  0.32512725  0.52880125  1
  H  H446  1  0.55189103  0.49996190  0.59716617  1
  C  C447  1  0.55606710  0.46107749  0.54997071  1
  C  C448  1  0.52809479  0.41787431  0.54514661  1
  C  C449  1  0.67327230  0.59039374  0.40354496  1
  C  C450  1  0.67328536  0.54835250  0.32758807  1
  C  C451  1  0.69157788  0.55279008  0.21982608  1
  H  H452  1  0.68692561  0.63031145  0.38192361  1
  C  C453  1  0.72969784  0.57330159  0.02936589  1
  C  C454  1  0.61315646  0.66780891  0.26643024  1
  C  C455  1  0.72736541  0.58971165  0.22029047  1
  O  O456  1  0.55062533  0.63384944  0.32759394  1
  C  C457  1  0.63979450  0.67409505  0.17746135  1
  Cu  Cu458  1  0.51882239  0.62359467  0.08182586  1
  O  O459  1  0.56346331  0.60833022  0.16473617  1
  C  C460  1  0.61872924  0.69547753  0.36535331  1
  C  C461  1  0.67839915  0.74454198  0.28636894  1
  O  O462  1  0.68542873  0.85684086  0.44335412  1
  C  C463  1  0.71457396  0.78413775  0.29332672  1
  C  C464  1  0.74555128  0.59811746  0.12035451  1
  C  C465  1  0.57321801  0.63520555  0.25075717  1
  H  H466  1  0.63553606  0.64792816  0.10487025  1
  C  C467  1  0.71394430  0.82582334  0.37124455  1
  C  C468  1  0.67312944  0.71047424  0.19218180  1
  C  C469  1  0.65149656  0.73484138  0.37335641  1
  H  H470  1  0.69577261  0.71316330  0.12726473  1
  C  C471  1  0.62409446  0.50105697  0.45480846  1
  C  C472  1  0.70789660  0.89314463  0.49378666  1
  C  C473  1  0.67582586  0.52437471  0.12568699  1
  H  H474  1  0.59736681  0.69216032  0.43167449  1
  H  H475  1  0.73037037  0.92917201  0.26002834  1
  O  O476  1  0.72199174  0.87310488  0.09651590  1
  C  C477  1  0.69547409  0.53809395  0.02979956  1
  H  H478  1  0.68101914  0.98255809  0.33816359  1
  H  H479  1  0.73593271  0.61025410  0.29575073  1
  H  H480  1  0.65681918  0.76277121  0.44441979  1
  H  H481  1  0.66010431  0.84601919  0.96189327  1
  C  C482  1  0.61187910  0.54277798  0.86564718  1
  H  H483  1  0.56902708  0.67950750  0.80517699  1
  H  H484  1  0.68494093  0.52029962  0.95358901  1
  C  C485  1  0.70294222  0.71026674  0.67070240  1
  C  C486  1  0.64159987  0.51902244  0.80377658  1
  H  H487  1  0.67292881  0.54005415  0.80385183  1
  C  C488  1  0.63088993  0.71513013  0.67701740  1
  H  H489  1  0.69773216  0.52175106  0.70329029  1
  H  H490  1  0.62061911  0.58198670  0.90306254  1
  C  C491  1  0.51541689  0.72929207  0.75157680  1
  O  O492  1  0.67036584  0.78951051  0.76626894  1
  C  C493  1  0.66830050  0.74201195  0.71155099  1
  C  C494  1  0.55741250  0.71182316  0.75345755  1
  C  C495  1  0.58678595  0.73928425  0.68522069  1
  C  C496  1  0.57284101  0.77681290  0.60241478  1
  C  C497  1  0.50300228  0.76746698  0.66989337  1
  C  C498  1  0.62353522  0.66412548  0.62018830  1
  C  C499  1  0.66083797  0.63682655  0.58614504  1
  H  H500  1  0.73932096  0.96977786  0.65631669  1
  H  H501  1  0.72300415  0.81713239  0.61247560  1
  O  O502  1  0.54610602  0.59819795  0.96247788  1
  H  H503  1  0.59097538  0.65280841  0.59704128  1
  C  C504  1  0.57083228  0.51952831  0.87604668  1
  H  H505  1  0.60668497  0.83038620  0.75775148  1
  C  C506  1  0.53072336  0.79059890  0.59624294  1
  O  O507  1  0.50195784  0.52571874  0.94340091  1
  H  H508  1  0.51656227  0.81122272  0.52499014  1
  H  H509  1  0.59594908  0.78833054  0.53803137  1
  H  H510  1  0.68720430  0.92054563  0.54589789  1
  H  H511  1  0.61825992  0.77094099  0.84584651  1
  H  H512  1  0.60955363  0.54252435  0.60353166  1
  C  C513  1  0.62934386  0.81248962  0.81941467  1
  C  C514  1  0.70023429  0.66322472  0.60309051  1
  C  C515  1  0.53759535  0.54795504  0.92924896  1
  C  C516  1  0.63211518  0.85417291  0.91271238  1
  H  H517  1  0.63672090  0.89899290  0.88104966  1
  H  H518  1  0.60591583  0.85797176  0.96687498  1
  H  H519  1  0.73465564  0.81744481  0.93357516  1
  H  H520  1  0.72880331  0.64709360  0.56362385  1
  C  C521  1  0.62488680  0.54422854  0.52950796  1
  O  O522  1  0.73047252  0.57129563  0.82769634  1
  C  C523  1  0.74991892  0.79119108  0.64223648  1
  C  C524  1  0.74704246  0.58774216  0.91231056  1
  C  C525  1  0.74669625  0.73437149  0.67914247  1
  C  C526  1  0.65425578  0.58828230  0.50725855  1
  C  C527  1  0.93074187  0.14144446  0.11001309  1
  C  C528  1  0.87296520  0.04903983  0.37857948  1
  C  C529  1  0.93337601  0.14126497  0.20977821  1
  H  H530  1  0.90871334  0.41855526  0.37456690  1
  H  H531  1  0.85204810  0.03954331  0.10142648  1
  C  C532  1  0.81372510  0.02219202  0.24534112  1
  C  C533  1  0.83841682  0.06582225  0.31257892  1
  C  C534  1  0.96380077  0.04129115  0.44363469  1
  O  O535  1  0.96836947  0.19717553  0.34244007  1
  C  C536  1  0.82278772  0.12103440  0.31027136  1
  H  H537  1  0.79356327  0.12911985  0.26676688  1
  H  H538  1  0.94471365  0.32437240  0.33854411  1
  H  H539  1  0.90789327  0.12559162  0.26241664  1
  C  C540  1  0.83817153  0.23028819  0.36691135  1
  C  C541  1  0.89509549  0.09783975  0.42953633  1
  H  H542  1  0.76991719  0.45225351  0.06908285  1
  C  C543  1  0.84487027  0.16481008  0.36331507  1
  C  C544  1  0.86478121  0.32633166  0.32948430  1
  H  H545  1  0.77073317  0.00613213  0.37384782  1
  C  C546  1  0.93693981  0.08721734  0.47485361  1
  C  C547  1  0.99674683  0.26735652  0.07067261  1
  O  O548  1  0.84694549  0.41009397  0.43349815  1
  H  H549  1  0.75832089  0.19978858  0.08291718  1
  O  O550  1  0.76057519  0.29333020  0.15733679  1
  C  C551  1  0.88025683  0.15434594  0.42588751  1
  C  C552  1  0.81680123  0.25658384  0.45438219  1
  H  H553  1  0.93384027  0.24455528  0.12702006  1
  C  C554  1  0.95272656  0.26344854  0.05894873  1
  H  H555  1  0.90204947  0.18938740  0.44825617  1
  C  C556  1  0.88056378  0.44724404  0.37381479  1
  O  O557  1  0.86627542  0.26349073  0.05366877  1
  C  C558  1  0.87595990  0.38883256  0.15508586  1
  C  C559  1  0.84444693  0.35468395  0.41411811  1
  C  C560  1  0.86491756  0.26784514  0.31232402  1
  C  C561  1  0.89248384  0.35477842  0.24225989  1
  H  H562  1  0.84238112  0.39679533  0.14693820  1
  C  C563  1  0.97521957  0.16714248  0.26747716  1
  C  C564  1  0.96430940  0.37018338  0.19741389  1
  C  C565  1  0.82530115  0.01631926  0.13760511  1
  C  C566  1  0.93526953  0.34746972  0.26660641  1
  Cu  Cu567  1  0.81294984  0.27975482  0.10759172  1
  H  H568  1  0.88418443  0.25068835  0.24024544  1
  H  H569  1  0.86981746  0.45269583  0.29206582  1
  C  C570  1  0.97965724  0.42163189  0.03276197  1
  C  C571  1  0.94977399  0.39954929  0.10936905  1
  H  H572  1  0.89735898  0.42828333  0.01456478  1
  C  C573  1  0.90654696  0.40762986  0.08697452  1
  C  C574  1  0.79061215  0.48549666  0.10910827  1
  C  C575  1  0.82039395  0.31459399  0.47465542  1
  H  H576  1  0.99876922  0.36491533  0.20319634  1
  H  H577  1  0.76182212  0.47310712  0.39530862  1
  H  H578  1  0.95337101  0.00868686  0.38304651  1
  C  C579  1  0.77884206  0.49706302  0.21348757  1
  H  H580  1  0.75139064  0.47624822  0.25353015  1
  C  C581  1  0.91749624  0.14685774  0.76159900  1
  C  C582  1  0.85308619  0.17187209  0.68342785  1
  C  C583  1  0.94111908  0.10072759  0.82596283  1
  C  C584  1  0.87650489  0.13193718  0.74292688  1
  H  H585  1  0.86297775  0.08957360  0.76169065  1
  O  O586  1  0.75996811  0.38597866  0.88735430  1
  C  C587  1  0.78690157  0.13173103  0.57306026  1
  C  C588  1  0.80514461  0.16062499  0.65892138  1
  C  C589  1  0.93906478  0.19863690  0.73475681  1
  H  H590  1  0.94458256  0.06478715  0.66314828  1
  C  C591  1  0.95242406  0.05989198  0.75004675  1
  C  C592  1  0.77767773  0.18048049  0.73613172  1
  C  C593  1  0.87005101  0.22500049  0.65766973  1
  C  C594  1  0.91140448  0.23581576  0.68277488  1
  C  C595  1  0.95474301  0.13204875  0.54142984  1
  H  H596  1  0.78814017  0.20706886  0.80586570  1
  O  O597  1  0.97135568  0.01398100  0.76071006  1
  C  C598  1  0.95517732  0.31275978  0.88658491  1
  O  O599  1  0.86669706  0.29315384  0.88986551  1
  H  H600  1  0.75539257  0.13512888  0.92602803  1
  C  C601  1  0.99917698  0.31461742  0.89483454  1
  H  H602  1  0.78177952  0.45601767  0.71598505  1
  H  H603  1  0.79892045  0.07755955  0.83862733  1
  C  C604  1  0.92670204  0.14101699  0.99964334  1
  O  O605  1  0.97809910  0.21631919  0.74971759  1
  O  O606  1  0.96670780  0.44753012  0.95026174  1
  O  O607  1  0.82178561  0.04911937  0.84999526  1
  H  H608  1  0.93619561  0.17031380  0.56028176  1
  C  C609  1  0.93311647  0.28557317  0.97075419  1
  C  C610  1  0.97744705  0.36647200  0.61561877  1
  H  H611  1  0.77303008  0.25084398  0.61175072  1
  H  H612  1  0.85049582  0.25779760  0.62234763  1
  H  H613  1  0.98723697  0.27262644  0.61363574  1
  C  C614  1  0.90386731  0.39561344  0.64315755  1
  C  C615  1  0.94669131  0.40881743  0.64147795  1
  C  C616  1  0.95995666  0.46684054  0.65516385  1
  C  C617  1  0.77139117  0.36991393  0.78770217  1
  H  H618  1  0.93599422  0.33371144  0.82285258  1
  H  H619  1  0.85997231  0.32649186  0.67204200  1
  H  H620  1  0.96190788  0.06243379  0.97455498  1
  H  H621  1  0.80260537  0.42553230  0.54625337  1
  C  C622  1  0.96616050  0.30979821  0.62093493  1
  C  C623  1  0.79496191  0.39252302  0.60528478  1
  H  H624  1  0.77936026  0.42167742  0.89374628  1
  C  C625  1  0.92539255  0.29553382  0.65339048  1
  H  H626  1  0.87995084  0.42878626  0.65104716  1
  C  C627  1  0.77834800  0.29472225  0.64662838  1
  C  C628  1  0.94599286  0.09812949  0.93516882  1
  C  C629  1  0.79869219  0.33391755  0.57505912  1
  C  C630  1  0.89295450  0.33870293  0.65570742  1
  O  O631  1  0.81893415  0.46014797  0.90594180  1
  H  H632  1  0.90911734  0.17666030  0.95843071  1
  C  C633  1  0.99597588  0.13112658  0.57273289  1
  C  C634  1  0.78241965  0.40847827  0.70537149  1
  C  C635  1  0.76695759  0.31321822  0.74784234  1
  H  H636  1  0.75307141  0.28002228  0.79961228  1
  O  O637  1  0.99757768  0.48026841  0.66271985  1
  C  C638  1  0.82312598  0.02175336  0.75853349  1
  C  C639  1  0.88510753  0.28234256  0.96889272  1
  H  H640  1  0.80645568  0.11638105  0.51069095  1
  H  H641  1  0.99747055  0.18230143  0.88763830  1
  C  C642  1  0.83933996  0.49321671  0.95549946  1
  H  H643  1  0.79490133  0.23146205  0.50122879  1
  O  O644  1  0.82213210  0.64710659  0.38485365  1
  C  C645  1  0.91996736  0.69016142  0.22875399  1
  C  C646  1  0.82935992  0.70239855  0.46597986  1
  C  C647  1  0.79335368  0.55401849  0.38232574  1
  H  H648  1  0.88318584  0.96311089  0.24455820  1
  C  C649  1  0.80972686  0.60422470  0.43698191  1
  H  H650  1  0.84741334  0.71066280  0.28362296  1
  C  C651  1  0.80350910  0.53943494  0.26955434  1
  C  C652  1  0.91340975  0.63737653  0.17471539  1
  C  C653  1  0.77310548  0.94444178  0.12762298  1
  C  C654  1  0.83871428  0.56433176  0.21410920  1
  H  H655  1  0.85533061  0.59830535  0.25644527  1
  H  H656  1  0.86363139  0.53530904  0.40666752  1
  C  C657  1  0.90608637  0.87427906  0.03071092  1
  C  C658  1  0.96771644  0.93838625  0.03109672  1
  C  C659  1  0.94533236  0.59736798  0.17336127  1
  C  C660  1  0.85839757  0.74329694  0.22990903  1
  C  C661  1  0.89971018  0.74298693  0.18377015  1
  H  H662  1  0.82866410  0.86792357  0.12042974  1
  H  H663  1  0.87971324  0.86761729  0.42578117  1
  H  H664  1  0.94127938  0.55567177  0.13426653  1
  C  C665  1  0.91902792  0.78051475  0.11008484  1
  C  C666  1  0.83248152  0.78648329  0.20183167  1
  C  C667  1  0.87194368  0.94504604  0.32268401  1
  H  H668  1  0.88279510  0.63472636  0.12734715  1
  H  H669  1  0.87706089  0.62620471  0.47223715  1
  H  H670  1  0.77410556  0.62790737  0.10923468  1
  H  H671  1  0.99608236  0.72760247  0.15434271  1
  H  H672  1  0.81735961  0.86430049  0.34324335  1
  C  C673  1  0.82563977  0.51159209  0.06012683  1
  C  C674  1  0.94017236  0.90318501  0.08420541  1
  C  C675  1  0.84845770  0.83002619  0.13387127  1
  C  C676  1  0.86525485  0.74514463  0.47595272  1
  C  C677  1  0.98832392  0.66096878  0.29576370  1
  H  H678  1  0.83605941  0.94767332  0.32390767  1
  C  C679  1  0.88975267  0.88549211  0.34465159  1
  H  H680  1  0.94378416  0.89406278  0.16870133  1
  H  H681  1  0.91804202  0.52991865  0.37395000  1
  C  C682  1  0.84959138  0.55330775  0.11123723  1
  C  C683  1  0.95599819  0.70038939  0.29608730  1
  H  H684  1  0.87304295  0.76546921  0.39854034  1
  H  H685  1  0.81281607  0.93855666  0.49508238  1
  H  H686  1  0.87933741  0.85595207  0.28302760  1
  H  H687  1  0.92426827  0.88644991  0.34313408  1
  H  H688  1  0.95822551  0.73987923  0.34021155  1
  C  C689  1  0.75178565  0.85227908  0.39148358  1
  C  C690  1  0.80411586  0.97493199  0.07808230  1
  C  C691  1  0.78894660  0.79615557  0.25974135  1
  C  C692  1  0.78839463  0.83835127  0.34020929  1
  C  C693  1  0.88818984  0.82486380  0.09189335  1
  H  H694  1  0.79986760  0.72441897  0.43406932  1
  O  O695  1  0.99532722  0.93913584  0.31236216  1
  H  H696  1  0.99801275  0.95065450  0.06552483  1
  C  C697  1  0.77067274  0.51055422  0.43153503  1
  C  C698  1  0.98164625  0.61175918  0.23441121  1
  O  O699  1  0.95486920  0.78069235  0.05819715  1
  H  H700  1  0.87669388  0.57212175  0.07234650  1
  C  C701  1  0.98148694  0.72519261  0.07314997  1
  C  C702  1  0.75938116  0.95236827  0.23172622  1
  C  C703  1  0.89222795  0.50587531  0.41722077  1
  H  H704  1  0.75072868  0.73377522  0.17268612  1
  O  O705  1  0.88599507  0.99774055  0.39204957  1
  C  C706  1  0.75062410  0.89940102  0.47526111  1
  H  H707  1  0.95165111  0.70066641  0.07930613  1
  C  C708  1  0.77962875  0.99433476  0.29266720  1
  C  C709  1  0.75168870  0.76885907  0.23180310  1
  C  C710  1  0.75070539  0.89899278  0.06512099  1
  H  H711  1  0.78559251  0.76371863  0.03202904  1
  C  C712  1  0.95700681  0.61543907  0.78057706  1
  O  O713  1  0.96066012  0.60174663  0.87745023  1
  C  C714  1  0.91687754  0.62022204  0.72935606  1
  H  H715  1  0.87876729  0.61569068  0.87808213  1
  C  C716  1  0.87885866  0.61222981  0.78982295  1
  C  C717  1  0.84349017  0.60309497  0.73284412  1
  C  C718  1  0.84255741  0.60596696  0.61490510  1
  C  C719  1  0.91822563  0.62740064  0.61774961  1
  H  H720  1  0.81405634  0.59827222  0.77845459  1
  O  O721  1  0.88664715  0.97767353  0.65944408  1
  O  O722  1  0.99108353  0.61409993  0.72832997  1
  C  C723  1  0.77581256  0.55568764  0.60373581  1
  H  H724  1  0.77158040  0.84008879  0.83091349  1
  O  O725  1  0.86787822  0.86694365  0.63233981  1
  H  H726  1  0.77363302  0.55153418  0.69366614  1
  C  C727  1  0.85073870  0.99220988  0.68745647  1
  C  C728  1  0.89559133  0.89324069  0.92414878  1
  H  H729  1  0.94972616  0.63798144  0.57611106  1
  O  O730  1  0.77049797  0.88825754  0.96683628  1
  O  O731  1  0.93094216  0.50379685  0.67127993  1
  C  C732  1  0.76611892  0.83153111  0.91978174  1
  C  C733  1  0.99032193  0.83576408  0.84249074  1
  C  C734  1  0.80585239  0.59107845  0.55263065  1
  H  H735  1  0.87139531  0.87127131  0.87743299  1
  H  H736  1  0.79503460  0.85718909  0.59912095  1
  C  C737  1  0.78155188  0.70313254  0.71619176  1
  O  O738  1  0.97772300  0.78099313  0.50301943  1
  C  C739  1  0.81929312  0.73255068  0.72799968  1
  O  O740  1  0.77418428  0.62407767  0.91569317  1
  C  C741  1  0.86381434  0.81922876  0.68564570  1
  H  H742  1  0.84797715  0.71037793  0.75370804  1
  C  C743  1  0.78832309  0.81581721  0.63885511  1
  C  C744  1  0.82328593  0.78855237  0.68486632  1
  O  O745  1  0.89261724  0.79821675  0.73257196  1
  C  C746  1  0.98570854  0.99529577  0.87374786  1
  C  C747  1  0.80552324  0.99218868  0.67233185  1
  C  C748  1  0.97426524  0.82896466  0.52802483  1
  H  H749  1  0.91207256  0.95308129  0.79645004  1
  C  C750  1  0.92108213  0.93336721  0.87330943  1
  H  H751  1  0.99622253  0.82293355  0.75776803  1
  H  H752  1  0.79431741  0.74484059  0.89665577  1
  Cu  Cu753  1  0.90076474  0.50569638  0.79722177  1
  C  C754  1  0.95776059  0.95504918  0.92530443  1
  H  H755  1  0.97040891  0.79918807  0.86982041  1
  H  H756  1  0.77510292  0.65944768  0.73728955  1
  Cu  Cu757  1  0.91255763  0.91431350  0.59295250  1
  C  C758  1  0.77066033  0.96655420  0.61705624  1
  H  H759  1  0.81230749  0.96426200  0.99313688  1
  C  C760  1  0.88132177  0.61909961  0.56122785  1
  H  H761  1  0.97686764  0.94159703  0.59493650  1
  Cu  Cu762  1  0.96329349  0.52652234  0.92223302  1
  H  H763  1  0.82169101  0.68295907  0.54432905  1
  H  H764  1  0.97324212  0.87568382  0.84626168  1
  C  C765  1  0.79572778  0.78212774  0.95336524  1
  O  O766  1  0.87552888  0.51409360  0.92344381  1
  C  C767  1  0.75598507  0.51470878  0.53820978  1
  O  O768  1  0.94066519  0.86110723  0.51461342  1
  H  H769  1  0.85749855  0.78048213  0.53007054  1
  H  H770  1  0.82853825  0.79773090  0.96339629  1
  C  C771  1  0.78035098  0.93541443  0.52651959  1
  H  H772  1  0.90053887  0.50273938  0.50398139  1
  H  H773  1  0.89416680  0.72163848  0.50654609  1
