# generated using pymatgen
data_CuH15C22O5
_symmetry_space_group_name_H-M   'P 1'
_cell_length_a   32.74467557
_cell_length_b   33.96582621
_cell_length_c   8.63458910
_cell_angle_alpha   90.00000000
_cell_angle_beta   90.00000000
_cell_angle_gamma   90.00000000
_symmetry_Int_Tables_number   1
_chemical_formula_structural   CuH15C22O5
_chemical_formula_sum   'Cu18 H270 C396 O90'
_cell_volume   9603.38964650
_cell_formula_units_Z   18
loop_
 _symmetry_equiv_pos_site_id
 _symmetry_equiv_pos_as_xyz
  1  'x, y, z'
loop_
 _atom_site_type_symbol
 _atom_site_label
 _atom_site_symmetry_multiplicity
 _atom_site_fract_x
 _atom_site_fract_y
 _atom_site_fract_z
 _atom_site_occupancy
  C  C0  1  0.19889581  0.17864099  0.24589636  1
  C  C1  1  0.05363459  0.17782383  0.07560555  1
  C  C2  1  0.13554050  0.18541208  0.08484424  1
  C  C3  1  0.09066685  0.19934528  0.09850510  1
  H  H4  1  0.15572523  0.05309942  0.16652476  1
  C  C5  1  0.15788058  0.18227454  0.22492160  1
  C  C6  1  0.01945971  0.19664970  0.14890268  1
  C  C7  1  0.16139927  0.02368636  0.21890274  1
  H  H8  1  0.01827961  0.12470843  0.26221601  1
  H  H9  1  0.21279168  0.17823367  0.36569253  1
  H  H10  1  0.12631406  0.08596196  0.27694796  1
  O  O11  1  0.04151698  0.06599483  0.17233338  1
  H  H12  1  0.13914246  0.18392537  0.33002955  1
  C  C13  1  0.03905658  0.04962620  0.29115635  1
  C  C14  1  0.15603751  0.01920971  0.37823934  1
  C  C15  1  0.12226633  0.08375523  0.40182720  1
  C  C16  1  0.22100309  0.17435410  0.10645182  1
  H  H17  1  0.11620211  0.12575085  0.07076646  1
  O  O18  1  0.05276753  0.14165060  0.01767838  1
  C  C19  1  0.13829706  0.05068545  0.46566594  1
  C  C20  1  0.04906410  0.00796480  0.31402522  1
  O  O21  1  0.03018881  0.07179441  0.44671968  1
  H  H22  1  0.06933746  0.00262312  0.07565578  1
  C  C23  1  0.02042683  0.23597214  0.19657999  1
  C  C24  1  0.09500235  0.23623776  0.16058568  1
  C  C25  1  0.05542305  0.09978249  0.49397132  1
  C  C26  1  0.09531769  0.11261851  0.48449649  1
  H  H27  1  0.12483689  0.25107327  0.15643011  1
  O  O28  1  0.00369028  0.42117156  0.05400285  1
  Cu  Cu29  1  0.00103622  0.36765681  0.07411166  1
  H  H30  1  0.09842473  0.31084043  0.01959436  1
  C  C31  1  0.05958850  0.29885458  0.24510503  1
  C  C32  1  0.02667198  0.35794992  0.35076000  1
  H  H33  1  0.00737572  0.43602085  0.40336608  1
  H  H34  1  0.11975280  0.43351886  0.36516880  1
  C  C35  1  0.02486419  0.31983935  0.28636308  1
  H  H36  1  0.13505849  0.47792788  0.14557631  1
  C  C37  1  0.05802708  0.25706421  0.19794049  1
  H  H38  1  0.12573606  0.30365078  0.21400079  1
  C  C39  1  0.16099394  0.39307966  0.23507398  1
  O  O40  1  0.06633384  0.41231142  0.43934325  1
  C  C41  1  0.09864870  0.31831825  0.25855900  1
  C  C42  1  0.11392281  0.48091603  0.05148804  1
  C  C43  1  0.10962119  0.42856500  0.48354405  1
  C  C44  1  0.14535848  0.36787685  0.34988170  1
  C  C45  1  0.06536260  0.37761098  0.37748058  1
  H  H46  1  0.08971889  0.26707223  0.45793403  1
  C  C47  1  0.07523399  0.46299414  0.05060054  1
  C  C48  1  0.10055774  0.35491323  0.33200570  1
  H  H49  1  0.14401168  0.40135453  0.13178398  1
  C  C50  1  0.21833762  0.40227687  0.41190245  1
  H  H51  1  0.06802995  0.44364491  0.14098430  1
  H  H52  1  0.21073392  0.43371059  0.19293120  1
  C  C53  1  0.19691859  0.41223028  0.27706735  1
  C  C54  1  0.17046126  0.35174958  0.46929066  1
  C  C55  1  0.09338443  0.18045086  0.59242323  1
  C  C56  1  0.02678125  0.21615249  0.62261929  1
  C  C57  1  0.12168012  0.21128277  0.63130568  1
  C  C58  1  0.16447343  0.20925924  0.64735325  1
  H  H59  1  0.22132340  0.17454799  0.85403739  1
  H  H60  1  0.07637587  0.02340014  0.78838085  1
  H  H61  1  0.14465768  0.17797697  0.83073806  1
  C  C62  1  0.18650770  0.17624863  0.59317809  1
  C  C63  1  0.23272704  0.17518159  0.60940546  1
  O  O64  1  0.16662122  0.03018150  0.90535447  1
  H  H65  1  0.09951259  0.15711488  0.91731736  1
  C  C66  1  0.00632515  0.03937229  0.83227642  1
  C  C67  1  0.10184793  0.08915501  0.87507558  1
  C  C68  1  0.04486654  0.01420073  0.81715208  1
  H  H69  1  0.08713838  0.08866536  0.76014414  1
  H  H70  1  0.03281229  0.11405375  0.58351710  1
  O  O71  1  0.05284685  0.17904162  0.58485023  1
  C  C72  1  0.16059438  0.14641353  0.54409908  1
  C  C73  1  0.11741924  0.14732866  0.54533303  1
  H  H74  1  0.13483849  0.08216919  0.86151388  1
  H  H75  1  0.24110734  0.11196285  0.62852554  1
  C  C76  1  0.01943478  0.23639819  0.78081134  1
  C  C77  1  0.15936811  0.18196328  0.94600862  1
  C  C78  1  0.18282908  0.00308137  0.96403599  1
  C  C79  1  0.20172478  0.17650194  0.96359108  1
  H  H80  1  0.24286669  0.23940926  0.61588911  1
  H  H81  1  0.09024172  0.06283691  0.93316405  1
  H  H82  1  0.18364855  0.23559773  0.69337447  1
  H  H83  1  0.12550887  0.24387274  0.93854208  1
  H  H84  1  0.04005087  0.23862936  0.55036901  1
  H  H85  1  0.13455339  0.04512493  0.59690330  1
  H  H86  1  0.03223041  0.00526680  0.56453857  1
  H  H87  1  0.17425237  0.11683221  0.51457893  1
  H  H88  1  0.02163523  0.21581378  0.88183228  1
  H  H89  1  0.01459974  0.07184834  0.82765380  1
  C  C90  1  0.09328478  0.12686126  0.97473689  1
  C  C91  1  0.11585856  0.46379458  0.59187394  1
  H  H92  1  0.09541469  0.48789096  0.54187301  1
  H  H93  1  0.18712445  0.47458628  0.98233924  1
  H  H94  1  0.14925297  0.47192546  0.59800649  1
  H  H95  1  0.12167983  0.40074342  0.52668788  1
  H  H96  1  0.05915170  0.33096719  0.54304025  1
  C  C97  1  0.05314949  0.49724158  0.81618931  1
  C  C98  1  0.00813839  0.44368412  0.93888546  1
  H  H99  1  0.04208788  0.26230301  0.79771148  1
  C  C100  1  0.05653728  0.35954904  0.83663379  1
  H  H101  1  0.24571075  0.43804151  0.96632050  1
  O  O102  1  0.04184837  0.38071794  0.73283634  1
  C  C103  1  0.09649720  0.30112224  0.89522946  1
  C  C104  1  0.10848652  0.25059952  0.69277053  1
  C  C105  1  0.04516123  0.46903749  0.93569376  1
  C  C106  1  0.11275303  0.26495978  0.84887150  1
  C  C107  1  0.20612230  0.37119650  0.50441268  1
  O  O108  1  0.05189519  0.36475364  0.98215250  1
  C  C109  1  0.07452303  0.32313616  0.78576443  1
  C  C110  1  0.09159137  0.27759580  0.58229249  1
  C  C111  1  0.07429543  0.31217310  0.62829574  1
  H  H112  1  0.15669140  0.32872244  0.54850133  1
  H  H113  1  0.22518088  0.36148175  0.60770338  1
  H  H114  1  0.10244453  0.45725880  0.70784067  1
  C  C115  1  0.24723989  0.74234175  0.12600506  1
  H  H116  1  0.21409069  0.74263947  0.10292524  1
  C  C117  1  0.05561732  0.74768925  0.37903062  1
  H  H118  1  0.03813806  0.68743990  0.35951320  1
  C  C119  1  0.05326455  0.70954988  0.43446956  1
  H  H120  1  0.13355225  0.73797838  0.07144147  1
  H  H121  1  0.13087385  0.87901533  0.04806806  1
  C  C122  1  0.08617339  0.81950091  0.38493672  1
  H  H123  1  0.00986654  0.79856938  0.44852980  1
  C  C124  1  0.24917249  0.94930038  0.07682982  1
  C  C125  1  0.05340187  0.94945559  0.47285981  1
  C  C126  1  0.21340504  0.81498415  0.20088370  1
  O  O127  1  0.17821428  0.99838180  0.13371347  1
  C  C128  1  0.04353137  0.99000431  0.46186095  1
  C  C129  1  0.16856718  0.98548010  0.46888026  1
  C  C130  1  0.06503851  0.98723398  0.18501634  1
  O  O131  1  0.17999380  0.95657437  0.40686402  1
  C  C132  1  0.12580983  0.81378116  0.32911163  1
  C  C133  1  0.06085917  0.85416174  0.40753058  1
  H  H134  1  0.08324387  0.93236138  0.09304561  1
  C  C135  1  0.14631291  0.84888158  0.27218305  1
  H  H136  1  0.24977310  0.98124654  0.10174716  1
  O  O137  1  0.02508709  0.85834564  0.47155912  1
  H  H138  1  0.13892464  0.91201678  0.25427225  1
  C  C139  1  0.19059635  0.84894784  0.23339968  1
  C  C140  1  0.07522817  0.77923471  0.45383177  1
  H  H141  1  0.04386080  0.75427881  0.26072050  1
  H  H142  1  0.20169237  0.78477949  0.22214107  1
  H  H143  1  0.13781643  0.78370072  0.32159146  1
  C  C144  1  0.12434725  0.88493648  0.28713175  1
  H  H145  1  0.19655022  0.91302044  0.24714259  1
  C  C146  1  0.21063897  0.88454619  0.23404691  1
  C  C147  1  0.06806435  0.92805739  0.34034440  1
  H  H148  1  0.17645330  0.87265194  0.49872994  1
  C  C149  1  0.08423088  0.88614650  0.34667966  1
  C  C150  1  0.07500601  0.94813188  0.19481674  1
  H  H151  1  0.08754669  0.77407810  0.05851239  1
  H  H152  1  0.07693956  0.84274510  0.05626334  1
  C  C153  1  0.20554741  0.58664295  0.85795746  1
  O  O154  1  0.13417220  0.58939822  0.81400985  1
  C  C155  1  0.16385850  0.56971722  0.85224226  1
  C  C156  1  0.19194752  0.64795767  0.70903945  1
  C  C157  1  0.21667324  0.62721983  0.82040419  1
  H  H158  1  0.09455615  0.54717415  0.74338342  1
  C  C159  1  0.15964442  0.52952242  0.90790947  1
  H  H160  1  0.11229918  0.72464222  0.75823570  1
  H  H161  1  0.10299799  0.62563240  0.77111049  1
  O  O162  1  0.09480743  0.65555992  0.77976344  1
  C  C163  1  0.20526858  0.68263370  0.64433558  1
  C  C164  1  0.07272509  0.66028293  0.63684023  1
  C  C165  1  0.08839463  0.52006555  0.81754438  1
  C  C166  1  0.09514323  0.73180818  0.65174749  1
  H  H167  1  0.16254446  0.63522733  0.65867319  1
  C  C168  1  0.23266742  0.52085184  0.94305015  1
  C  C169  1  0.23564012  0.56159754  0.91473368  1
  H  H170  1  0.15850826  0.70309352  0.92950871  1
  C  C171  1  0.12018512  0.50800379  0.92779246  1
  C  C172  1  0.19287482  0.50467611  0.94298995  1
  C  C173  1  0.24340833  0.69673784  0.69771764  1
  C  C174  1  0.15281492  0.73467700  0.96426671  1
  O  O175  1  0.05401457  0.63297073  0.58293543  1
  C  C176  1  0.07369241  0.70154421  0.57453582  1
  H  H177  1  0.02962319  0.50191567  0.72809093  1
  H  H178  1  0.18954186  0.69884365  0.55917251  1
  C  C179  1  0.00734075  0.82078008  0.54092835  1
  H  H180  1  0.08647290  0.77217798  0.84829854  1
  C  C181  1  0.22378909  0.93826174  0.95430022  1
  O  O182  1  0.24971040  0.75464553  0.53959216  1
  H  H183  1  0.19038471  0.76047594  0.78653973  1
  O  O184  1  0.23836264  0.83463192  0.54913161  1
  C  C185  1  0.18768871  0.85658407  0.73219229  1
  C  C186  1  0.06697647  0.82953773  0.94374825  1
  C  C187  1  0.09500151  0.77066079  0.59889182  1
  H  H188  1  0.11305694  0.79215082  0.66240091  1
  O  O189  1  0.16517195  0.98972778  0.64671139  1
  H  H190  1  0.05054921  0.93132761  0.58067609  1
  C  C191  1  0.03703865  0.89334692  0.90003473  1
  C  C192  1  0.04267210  0.97500317  0.84439325  1
  H  H193  1  0.04040387  0.77028236  0.95868995  1
  C  C194  1  0.07515087  0.91197503  0.86136746  1
  C  C195  1  0.22745697  0.84087929  0.68566033  1
  C  C196  1  0.00193119  0.91908211  0.90661696  1
  H  H197  1  0.10918868  0.96469721  0.81355772  1
  H  H198  1  0.20445853  0.94643471  0.64502308  1
  C  C199  1  0.17816277  0.85755903  0.89347117  1
  C  C200  1  0.17377142  0.76478899  0.90105876  1
  H  H201  1  0.16903598  0.79612606  0.94639899  1
  C  C202  1  0.07071385  0.78430668  0.95267959  1
  H  H203  1  0.20003633  0.85220835  0.98571643  1
  C  C204  1  0.11542855  0.89064138  0.81703912  1
  H  H205  1  0.08549290  0.84119022  0.84710814  1
  C  C206  1  0.07952847  0.95176131  0.83977127  1
  C  C207  1  0.20072758  0.96942723  0.88282525  1
  C  C208  1  0.12587458  0.88975765  0.65521776  1
  C  C209  1  0.19013062  0.96910729  0.72430238  1
  C  C210  1  0.16345496  0.87273828  0.61523625  1
  C  C211  1  0.14198883  0.87467986  0.93125277  1
  H  H212  1  0.22195974  0.90775061  0.91152134  1
  C  C213  1  0.00296151  0.95785739  0.88177218  1
  H  H214  1  0.03265635  0.81138168  0.61810455  1
  O  O215  1  0.02911712  0.85581993  0.92187483  1
  H  H216  1  0.10530585  0.90205229  0.56998768  1
  Cu  Cu217  1  0.32303069  0.21577705  0.26236508  1
  O  O218  1  0.28552925  0.17332063  0.24407954  1
  H  H219  1  0.32085651  0.03631719  0.29701752  1
  C  C220  1  0.26600906  0.16900539  0.12030806  1
  C  C221  1  0.32200196  0.04778137  0.41819400  1
  H  H222  1  0.29680799  0.10382032  0.36648581  1
  C  C223  1  0.31128707  0.08566770  0.45528868  1
  C  C224  1  0.39092092  0.24255620  0.09781104  1
  H  H225  1  0.44540778  0.15134953  0.44686907  1
  O  O226  1  0.37203796  0.24124664  0.22970440  1
  H  H227  1  0.47305816  0.01650868  0.02461386  1
  O  O228  1  0.39648194  0.10462513  0.01369420  1
  C  C229  1  0.42777206  0.11201982  0.02782666  1
  C  C230  1  0.25636120  0.42291062  0.45530330  1
  O  O231  1  0.35372362  0.38965446  0.44919652  1
  C  C232  1  0.35352165  0.45355389  0.02119129  1
  C  C233  1  0.43413886  0.36920484  0.08989312  1
  O  O234  1  0.26582089  0.45172685  0.37350655  1
  C  C235  1  0.29335627  0.27057760  0.06347089  1
  O  O236  1  0.28602705  0.25710203  0.19711018  1
  C  C237  1  0.29921784  0.37701488  0.16677322  1
  H  H238  1  0.29946570  0.39687749  0.27141852  1
  H  H239  1  0.29243614  0.32003386  0.28806828  1
  C  C240  1  0.43377845  0.25483755  0.09942775  1
  H  H241  1  0.43034682  0.27271475  0.33782308  1
  H  H242  1  0.45174959  0.37874544  0.19667674  1
  O  O243  1  0.38917717  0.43839694  0.05411725  1
  C  C244  1  0.29548176  0.33541855  0.17796435  1
  Cu  Cu245  1  0.30767122  0.48582319  0.39369572  1
  H  H246  1  0.49835407  0.30070835  0.34772431  1
  H  H247  1  0.28935852  0.34534333  0.47178911  1
  H  H248  1  0.45176108  0.49621052  0.28895927  1
  C  C249  1  0.29888881  0.31395888  0.04051001  1
  C  C250  1  0.48906252  0.28447205  0.24030916  1
  H  H251  1  0.44658154  0.48149232  0.09094072  1
  H  H252  1  0.37153508  0.38697362  0.19409778  1
  C  C253  1  0.44992290  0.26938617  0.24065964  1
  C  C254  1  0.39191770  0.39095602  0.08411514  1
  C  C255  1  0.38279557  0.49276941  0.48569494  1
  C  C256  1  0.31204418  0.43735615  0.00228591  1
  H  H257  1  0.43210492  0.33582832  0.09812393  1
  C  C258  1  0.30554447  0.39263370  0.01719437  1
  C  C259  1  0.32895423  0.07558663  0.73090122  1
  C  C260  1  0.33458135  0.03575050  0.70057246  1
  H  H261  1  0.33648433  0.08781485  0.85032428  1
  C  C262  1  0.29961721  0.20910585  0.60819380  1
  C  C263  1  0.32592640  0.17568547  0.60908043  1
  C  C264  1  0.29882214  0.14264006  0.62082292  1
  H  H265  1  0.34225631  0.01413824  0.78946022  1
  H  H266  1  0.38193371  0.12828099  0.70640977  1
  C  C267  1  0.31439139  0.10147856  0.61035060  1
  H  H268  1  0.37574896  0.23399792  0.71136791  1
  H  H269  1  0.44545464  0.24377788  0.85302466  1
  Cu  Cu270  1  0.33156215  0.20195612  0.97578159  1
  O  O271  1  0.28451123  0.17024534  0.99330205  1
  O  O272  1  0.37704295  0.22923242  0.97732518  1
  O  O273  1  0.29574795  0.24914000  0.94861322  1
  C  C274  1  0.25611602  0.14017478  0.61668547  1
  C  C275  1  0.25610743  0.20986283  0.61165157  1
  C  C276  1  0.39196689  0.13773387  0.58824303  1
  O  O277  1  0.36576261  0.17723112  0.59756171  1
  H  H278  1  0.45397118  0.15464197  0.65653775  1
  H  H279  1  0.37406485  0.11957452  0.50451342  1
  C  C280  1  0.33097231  0.02121623  0.54467476  1
  C  C281  1  0.43820717  0.13783903  0.56268400  1
  H  H282  1  0.45002904  0.10821667  0.54952099  1
  C  C283  1  0.45779551  0.25488936  0.96368705  1
  O  O284  1  0.49446161  0.30053844  0.64534829  1
  C  C285  1  0.49769041  0.36164843  0.52047593  1
  C  C286  1  0.27209618  0.49793177  0.95603193  1
  C  C287  1  0.31256358  0.36943819  0.88305474  1
  O  O288  1  0.28023746  0.40961166  0.56018144  1
  O  O289  1  0.41050638  0.35907279  0.52178363  1
  C  C290  1  0.35001072  0.32328714  0.54291154  1
  H  H291  1  0.45041193  0.46240520  0.65617611  1
  C  C292  1  0.37307153  0.35951606  0.50630549  1
  C  C293  1  0.45476496  0.49174830  0.60447966  1
  C  C294  1  0.49883665  0.26657816  0.97028210  1
  C  C295  1  0.30764430  0.31964233  0.52450415  1
  C  C296  1  0.29277028  0.28182012  0.55087256  1
  C  C297  1  0.35806924  0.25874535  0.64671074  1
  H  H298  1  0.40654379  0.30047635  0.62755372  1
  Cu  Cu299  1  0.33145155  0.43109575  0.55845178  1
  O  O300  1  0.37807412  0.45970835  0.55500032  1
  C  C301  1  0.37528938  0.29364330  0.60764319  1
  H  H302  1  0.31184649  0.31054870  0.79686198  1
  C  C303  1  0.30779579  0.32935155  0.89191647  1
  C  C304  1  0.31742167  0.25070294  0.60333802  1
  H  H305  1  0.32247000  0.38374637  0.77245604  1
  C  C306  1  0.27491487  0.45549761  0.97496159  1
  H  H307  1  0.37480967  0.37467782  0.99532450  1
  H  H308  1  0.46332864  0.36447949  0.54049928  1
  H  H309  1  0.45384303  0.37348203  0.98448321  1
  C  C310  1  0.34767254  0.49449568  0.98382387  1
  H  H311  1  0.26097428  0.27380328  0.51775197  1
  O  O312  1  0.36820344  0.66682339  0.21528655  1
  C  C313  1  0.32994779  0.66467606  0.17821088  1
  C  C314  1  0.31089434  0.70605128  0.16835333  1
  H  H315  1  0.39878915  0.60481527  0.22248767  1
  O  O316  1  0.45123477  0.64859199  0.14094533  1
  C  C317  1  0.26845147  0.70685140  0.14068652  1
  C  C318  1  0.40538705  0.58451254  0.12821584  1
  O  O319  1  0.31315930  0.63380420  0.17386135  1
  C  C320  1  0.38080565  0.55167030  0.12662898  1
  H  H321  1  0.35430029  0.54931729  0.19933689  1
  C  C322  1  0.43458975  0.59110618  0.01049113  1
  Cu  Cu323  1  0.40828830  0.68518595  0.11242960  1
  C  C324  1  0.46031525  0.62615921  0.02739386  1
  H  H325  1  0.36705417  0.73718453  0.21069706  1
  H  H326  1  0.45759796  0.53479741  0.14254258  1
  C  C327  1  0.33422204  0.74001691  0.19063136  1
  C  C328  1  0.46352437  0.50172881  0.17229057  1
  O  O329  1  0.42163653  0.73653102  0.03515141  1
  C  C330  1  0.42747245  0.54723908  0.43647656  1
  O  O331  1  0.35401661  0.51178532  0.42565506  1
  H  H332  1  0.46852225  0.59571805  0.37345921  1
  H  H333  1  0.25208902  0.67803243  0.13448394  1
  H  H334  1  0.40236416  0.55859163  0.37202559  1
  C  C335  1  0.46464903  0.56571611  0.43302059  1
  H  H336  1  0.47994465  0.69354658  0.49952897  1
  C  C337  1  0.25242808  0.88361520  0.18364965  1
  C  C338  1  0.25451389  0.81732609  0.15471387  1
  C  C339  1  0.47177328  0.98398767  0.03516609  1
  H  H340  1  0.45687389  0.75528359  0.28087078  1
  C  C341  1  0.29629977  0.93953159  0.30194501  1
  H  H342  1  0.30367221  0.91901686  0.40251359  1
  H  H343  1  0.46978522  0.86098611  0.22101389  1
  O  O344  1  0.31322677  0.97157996  0.33353303  1
  H  H345  1  0.42750241  0.80066984  0.12138297  1
  C  C346  1  0.44373196  0.76705980  0.39325354  1
  C  C347  1  0.31480132  0.77503516  0.17750910  1
  C  C348  1  0.46087757  0.80541026  0.09165987  1
  H  H349  1  0.38561472  0.78450815  0.28194044  1
  C  C350  1  0.27138251  0.77664235  0.15295414  1
  Cu  Cu351  1  0.27318920  0.79853210  0.43781225  1
  C  C352  1  0.27785778  0.85302941  0.13414336  1
  C  C353  1  0.48012325  0.77500212  0.00875377  1
  C  C354  1  0.40370577  0.78200474  0.39390273  1
  H  H355  1  0.40745048  0.87816834  0.02110468  1
  C  C356  1  0.48389554  0.83602462  0.15323172  1
  H  H357  1  0.33362030  0.80144595  0.18873994  1
  C  C358  1  0.27046079  0.92467619  0.18240791  1
  O  O359  1  0.32544291  0.81989974  0.44616230  1
  H  H360  1  0.34759593  0.90922759  0.13390146  1
  H  H361  1  0.44357958  0.97596763  0.11161395  1
  O  O362  1  0.31670310  0.85250465  0.08985644  1
  C  C363  1  0.34157520  0.88783502  0.03313839  1
  C  C364  1  0.42308573  0.51033522  0.51312049  1
  H  H365  1  0.29618358  0.68981902  0.84155567  1
  C  C366  1  0.49155643  0.51155047  0.61118163  1
  C  C367  1  0.26284183  0.73277343  0.64393353  1
  O  O368  1  0.46985637  0.71313848  0.88562669  1
  H  H369  1  0.41820675  0.50776437  0.79475827  1
  C  C370  1  0.25561902  0.64092125  0.87165419  1
  O  O371  1  0.29449891  0.74405338  0.72428508  1
  C  C372  1  0.26679655  0.67676374  0.81252211  1
  H  H373  1  0.26655833  0.57409335  0.90309557  1
  H  H374  1  0.46504498  0.56590167  0.80534431  1
  C  C375  1  0.41245376  0.53212093  0.87790145  1
  H  H376  1  0.48979139  0.62262612  0.52958150  1
  C  C377  1  0.49677744  0.54878383  0.52925139  1
  C  C378  1  0.43918114  0.56451103  0.88698258  1
  C  C379  1  0.31133699  0.51618279  0.95525266  1
  O  O380  1  0.48772120  0.63479498  0.93257434  1
  C  C381  1  0.38217587  0.52506469  0.99488016  1
  C  C382  1  0.45564501  0.74064237  0.96801851  1
  H  H383  1  0.31613611  0.54727079  0.94677182  1
  H  H384  1  0.27335464  0.62346455  0.96241094  1
  Cu  Cu385  1  0.29280272  0.79393063  0.80798084  1
  H  H386  1  0.46454556  0.97244438  0.91261688  1
  H  H387  1  0.37687954  0.85173457  0.88099432  1
  C  C388  1  0.46678580  0.76532148  0.53101005  1
  C  C389  1  0.41090510  0.79364222  0.68010730  1
  C  C390  1  0.38116332  0.87979179  0.94067125  1
  H  H391  1  0.46995177  0.78112530  0.77879747  1
  H  H392  1  0.39715164  0.80305547  0.79039140  1
  O  O393  1  0.25143063  0.83246593  0.79809117  1
  H  H394  1  0.38680470  0.90397256  0.85440680  1
  H  H395  1  0.31742971  0.90184022  0.96221965  1
  C  C396  1  0.34905143  0.81305868  0.55838247  1
  C  C397  1  0.38987525  0.79694575  0.53583396  1
  H  H398  1  0.47393554  0.83492226  0.55959690  1
  O  O399  1  0.33731628  0.82055635  0.69581684  1
  C  C400  1  0.45044101  0.78092948  0.67559080  1
  C  C401  1  0.33312570  0.98002599  0.50009127  1
  O  O402  1  0.34320530  0.95587146  0.58844941  1
  H  H403  1  0.63464752  0.08075054  0.40777027  1
  C  C404  1  0.70706760  0.20895097  0.38780796  1
  C  C405  1  0.67586348  0.23570838  0.35409781  1
  O  O406  1  0.57205327  0.21604114  0.12707375  1
  C  C407  1  0.72081273  0.18102146  0.27596816  1
  C  C408  1  0.60236483  0.18216533  0.15005796  1
  C  C409  1  0.66285959  0.23704936  0.19508735  1
  H  H410  1  0.62221221  0.18500301  0.25638176  1
  C  C411  1  0.71043340  0.18424279  0.11524936  1
  C  C412  1  0.68175484  0.21234106  0.07963244  1
  O  O413  1  0.58018490  0.03662606  0.37926239  1
  C  C414  1  0.58150490  0.14204733  0.17431647  1
  C  C415  1  0.62192712  0.10108738  0.49450362  1
  H  H416  1  0.56900036  0.13094924  0.06464301  1
  H  H417  1  0.67241682  0.14397007  0.47090985  1
  C  C418  1  0.57082780  0.00050498  0.36185133  1
  H  H419  1  0.55773458  0.14675813  0.26569055  1
  C  C420  1  0.74664615  0.14959760  0.33202083  1
  H  H421  1  0.60432569  0.12077568  0.21548345  1
  H  H422  1  0.62259694  0.18394719  0.04634688  1
  H  H423  1  0.60189119  0.03812557  0.10582322  1
  H  H424  1  0.72323624  0.16282290  0.03343939  1
  C  C425  1  0.60932052  0.01095090  0.04915284  1
  H  H426  1  0.54687663  0.24054104  0.37721906  1
  H  H427  1  0.72814267  0.36917603  0.49538681  1
  C  C428  1  0.69768412  0.41904865  0.18910447  1
  H  H429  1  0.71931372  0.47965669  0.21093408  1
  C  C430  1  0.58664565  0.25331232  0.14079064  1
  H  H431  1  0.66446432  0.25650278  0.43793833  1
  C  C432  1  0.61334324  0.32885476  0.17567613  1
  H  H433  1  0.50345516  0.41528446  0.40812314  1
  C  C434  1  0.62768517  0.26467609  0.16993596  1
  C  C435  1  0.65294801  0.42751274  0.20348897  1
  H  H436  1  0.67590469  0.31025428  0.22025126  1
  C  C437  1  0.72842039  0.44814077  0.20792378  1
  C  C438  1  0.63743463  0.46496691  0.16307778  1
  H  H439  1  0.69395290  0.35690980  0.16754546  1
  C  C440  1  0.56511222  0.45027014  0.25459894  1
  C  C441  1  0.51920258  0.38949300  0.44766973  1
  H  H442  1  0.55485827  0.35491454  0.12317427  1
  C  C443  1  0.56279033  0.38781299  0.41031638  1
  C  C444  1  0.64553858  0.30368215  0.18697160  1
  O  O445  1  0.52714195  0.45769079  0.26205148  1
  C  C446  1  0.56091593  0.28691180  0.13092265  1
  C  C447  1  0.51010877  0.49475082  0.16486132  1
  C  C448  1  0.51575622  0.28134183  0.10943685  1
  C  C449  1  0.58583364  0.41534232  0.31373144  1
  C  C450  1  0.59624718  0.47513583  0.19141855  1
  C  C451  1  0.71610428  0.38032151  0.17701105  1
  H  H452  1  0.63761096  0.37385747  0.32427138  1
  H  H453  1  0.65875691  0.48630020  0.10837590  1
  C  C454  1  0.57371812  0.32823106  0.13913962  1
  H  H455  1  0.51927137  0.49828250  0.04499328  1
  C  C456  1  0.62566290  0.40220515  0.28932889  1
  C  C457  1  0.58004473  0.35098060  0.45646541  1
  H  H458  1  0.61282750  0.34406992  0.42693472  1
  H  H459  1  0.58707358  0.16281504  0.85851963  1
  C  C460  1  0.59616369  0.14498046  0.75115419  1
  H  H461  1  0.54319116  0.10375955  0.75943635  1
  C  C462  1  0.57190005  0.11275365  0.70530220  1
  C  C463  1  0.73163438  0.19699553  0.75055883  1
  C  C464  1  0.69764873  0.17287313  0.72785959  1
  H  H465  1  0.70066593  0.14157136  0.73097639  1
  C  C466  1  0.65953187  0.19024997  0.69092199  1
  C  C467  1  0.63005105  0.15628505  0.66175796  1
  C  C468  1  0.65156481  0.23128173  0.68985593  1
  C  C469  1  0.72612088  0.23924350  0.75519994  1
  H  H470  1  0.57530142  0.20581885  0.69431251  1
  H  H471  1  0.67339221  0.21674629  0.95549599  1
  C  C472  1  0.58560723  0.09065826  0.57504954  1
  O  O473  1  0.53156099  0.04528150  0.58448539  1
  C  C474  1  0.64020758  0.00069457  0.76825503  1
  C  C475  1  0.62760573  0.00925046  0.89703449  1
  O  O476  1  0.61630772  0.24776084  0.65250429  1
  C  C477  1  0.54213998  0.23229939  0.50065273  1
  C  C478  1  0.58266694  0.22148632  0.58213978  1
  C  C479  1  0.56112619  0.05689678  0.52770721  1
  C  C480  1  0.64545729  0.13384438  0.52967143  1
  H  H481  1  0.51798827  0.20720276  0.50051530  1
  H  H482  1  0.59976948  0.20245244  0.50450735  1
  H  H483  1  0.72107906  0.20625570  0.50562380  1
  C  C484  1  0.68863181  0.29818068  0.73163349  1
  H  H485  1  0.51976225  0.26563658  0.87315788  1
  H  H486  1  0.67214875  0.38585026  0.93311169  1
  H  H487  1  0.52628748  0.25846874  0.56182702  1
  C  C488  1  0.70999645  0.31339312  0.59758088  1
  C  C489  1  0.70107101  0.37861247  0.71714734  1
  C  C490  1  0.68720531  0.25346859  0.72826233  1
  H  H491  1  0.51783660  0.49864740  0.67215774  1
  C  C492  1  0.51644210  0.32554898  0.58451498  1
  H  H493  1  0.60405473  0.44573122  0.58714964  1
  C  C494  1  0.71426226  0.35351763  0.59469483  1
  C  C495  1  0.62865089  0.46124970  0.65162462  1
  H  H496  1  0.63387702  0.44681597  0.76403731  1
  C  C497  1  0.56031398  0.32363058  0.54380832  1
  O  O498  1  0.70261842  0.44326704  0.80157843  1
  C  C499  1  0.67953162  0.36364358  0.84393556  1
  C  C500  1  0.67114515  0.32305582  0.84676250  1
  H  H501  1  0.65168303  0.30913515  0.94160091  1
  O  O502  1  0.73999013  0.43262477  0.59900610  1
  C  C503  1  0.71530749  0.42045254  0.70901319  1
  H  H504  1  0.57971145  0.29857489  0.58027889  1
  H  H505  1  0.66045626  0.45585623  0.59123794  1
  H  H506  1  0.73912509  0.30354090  0.99674402  1
  H  H507  1  0.72569429  0.29546612  0.50889648  1
  C  C508  1  0.58338308  0.58259476  0.27233954  1
  O  O509  1  0.57954895  0.66363301  0.20947281  1
  C  C510  1  0.57600142  0.64284993  0.09872684  1
  C  C511  1  0.57787108  0.59897181  0.12161765  1
  C  C512  1  0.58848757  0.54250493  0.28597269  1
  O  O513  1  0.69306500  0.61555422  0.25517630  1
  C  C514  1  0.71725314  0.63189548  0.34654350  1
  C  C515  1  0.70392415  0.67183723  0.41523940  1
  C  C516  1  0.66759534  0.68927128  0.36171593  1
  H  H517  1  0.65066988  0.67445268  0.27597408  1
  C  C518  1  0.57734545  0.53334471  0.00681802  1
  H  H519  1  0.74227985  0.51510272  0.29600139  1
  C  C520  1  0.58666306  0.51770232  0.15246888  1
  H  H521  1  0.52630473  0.51623086  0.23551219  1
  H  H522  1  0.66658529  0.58146245  0.42821776  1
  H  H523  1  0.59249463  0.52824250  0.40662326  1
  H  H524  1  0.58710233  0.60356775  0.37270065  1
  H  H525  1  0.63123949  0.74421009  0.35847882  1
  C  C526  1  0.65774963  0.72821676  0.40802978  1
  C  C527  1  0.68814118  0.87079816  0.48074536  1
  C  C528  1  0.54436394  0.90563872  0.19965852  1
  C  C529  1  0.61439693  0.86792847  0.37302783  1
  H  H530  1  0.62416873  0.79027091  0.45890884  1
  C  C531  1  0.51033869  0.96566250  0.11448053  1
  H  H532  1  0.55080055  0.88160581  0.49623925  1
  C  C533  1  0.52809413  0.83174113  0.14236539  1
  H  H534  1  0.50082035  0.90393374  0.44928107  1
  C  C535  1  0.70107143  0.83024531  0.00628576  1
  H  H536  1  0.51806214  0.98188789  0.22026257  1
  H  H537  1  0.67960700  0.75117123  0.05210637  1
  H  H538  1  0.55361764  0.98940959  0.46115226  1
  C  C539  1  0.58197128  0.97135609  0.25810187  1
  C  C540  1  0.57548688  0.92691454  0.28385050  1
  C  C541  1  0.59945925  0.97520008  0.10648832  1
  O  O542  1  0.51303962  0.91838554  0.12490653  1
  H  H543  1  0.51410445  0.82581061  0.40968913  1
  O  O544  1  0.72776865  0.81363277  0.09308314  1
  C  C545  1  0.54664841  0.80282488  0.04244836  1
  C  C546  1  0.64995159  0.85103045  0.45219585  1
  C  C547  1  0.65164765  0.80929558  0.47393028  1
  H  H548  1  0.63054640  0.92825977  0.42182377  1
  C  C549  1  0.60820758  0.90986147  0.36313141  1
  C  C550  1  0.58584648  0.84542618  0.28458913  1
  C  C551  1  0.55351167  0.86445450  0.21535572  1
  H  H552  1  0.58819270  0.81340901  0.27808974  1
  H  H553  1  0.69183235  0.90165278  0.43680167  1
  H  H554  1  0.61019509  0.94891485  0.04015103  1
  H  H555  1  0.53577753  0.96924237  0.03844285  1
  H  H556  1  0.57915268  0.80290768  0.00600681  1
  C  C557  1  0.64433401  0.58011465  0.67258297  1
  C  C558  1  0.57592268  0.71124378  0.66039333  1
  H  H559  1  0.60453766  0.69838607  0.70091194  1
  H  H560  1  0.61399329  0.64797057  0.65462421  1
  C  C561  1  0.55217181  0.64455238  0.57658576  1
  C  C562  1  0.59026714  0.62785673  0.61901567  1
  C  C563  1  0.60060479  0.58878203  0.62273747  1
  C  C564  1  0.52279551  0.61511038  0.55456797  1
  C  C565  1  0.72344709  0.54845501  0.74089039  1
  C  C566  1  0.57086358  0.55795328  0.60740464  1
  C  C567  1  0.53228607  0.57627864  0.56454743  1
  C  C568  1  0.67327737  0.57500216  0.54945699  1
  C  C569  1  0.71062172  0.55838306  0.59143734  1
  O  O570  1  0.57679800  0.52005946  0.62130310  1
  C  C571  1  0.65876099  0.57380449  0.82764689  1
  C  C572  1  0.54354400  0.68830445  0.59615716  1
  C  C573  1  0.50807856  0.70706118  0.54561419  1
  H  H574  1  0.73332638  0.55034245  0.50641438  1
  H  H575  1  0.62671331  0.51850557  0.76919562  1
  C  C576  1  0.50935366  0.74743476  0.55552759  1
  H  H577  1  0.63756520  0.52141980  0.56445630  1
  C  C578  1  0.68740229  0.74637154  0.50879240  1
  C  C579  1  0.71918419  0.72348981  0.57960953  1
  H  H580  1  0.73548626  0.73753970  0.68038005  1
  C  C581  1  0.69627504  0.55949928  0.86195644  1
  H  H582  1  0.57996860  0.51421744  0.90388511  1
  Cu  Cu583  1  0.51837024  0.68164221  0.92264409  1
  H  H584  1  0.57097410  0.58651952  0.86834887  1
  H  H585  1  0.62138436  0.71547584  0.88924472  1
  H  H586  1  0.70829123  0.55543714  0.98131048  1
  C  C587  1  0.57382819  0.57432042  0.98999176  1
  O  O588  1  0.56653351  0.65590144  0.96083428  1
  H  H589  1  0.63820903  0.58094421  0.92516819  1
  C  C590  1  0.63033719  0.74659532  0.86884781  1
  C  C591  1  0.61847691  0.50622991  0.65006713  1
  C  C592  1  0.72970997  0.68633116  0.52992036  1
  H  H593  1  0.53437204  0.75465629  0.88422131  1
  C  C594  1  0.52193230  0.77557925  0.96614503  1
  C  C595  1  0.50584629  0.84035784  0.52449025  1
  C  C596  1  0.68806461  0.79107913  0.52440929  1
  C  C597  1  0.67095416  0.80475475  0.92994878  1
  C  C598  1  0.60869872  0.76831899  0.76099798  1
  C  C599  1  0.65406842  0.98815871  0.61492237  1
  C  C600  1  0.72463259  0.80966348  0.58094560  1
  O  O601  1  0.53948762  0.81245412  0.61422877  1
  C  C602  1  0.61787983  0.81011675  0.73044554  1
  H  H603  1  0.60388316  0.82800367  0.63459813  1
  C  C604  1  0.53930665  0.77430763  0.60967336  1
  C  C605  1  0.72164044  0.85090151  0.54064593  1
  H  H606  1  0.72647799  0.93046815  0.60499252  1
  H  H607  1  0.65102702  0.85917410  0.80884915  1
  C  C608  1  0.57265173  0.75070334  0.67583534  1
  C  C609  1  0.64595658  0.82727058  0.82212558  1
  H  H610  1  0.51365743  0.89486735  0.64251312  1
  O  O611  1  0.67870524  0.96498820  0.56740393  1
  C  C612  1  0.66137910  0.76599478  0.96197455  1
  H  H613  1  0.63692543  0.99842062  0.50370329  1
  O  O614  1  0.70860097  0.86355172  0.95272910  1
  C  C615  1  0.51769852  0.88401013  0.52217404  1
  C  C616  1  0.95352971  0.11809099  0.32516656  1
  H  H617  1  0.95910002  0.08861734  0.37121434  1
  C  C618  1  0.91438257  0.13404883  0.31168046  1
  C  C619  1  0.94055538  0.19394593  0.19234056  1
  C  C620  1  0.88245003  0.10984154  0.37792643  1
  O  O621  1  0.90045513  0.02871878  0.24879702  1
  C  C622  1  0.81584092  0.21456294  0.28013780  1
  O  O623  1  0.84422623  0.12142781  0.36387941  1
  O  O624  1  0.76189118  0.12876338  0.22277742  1
  C  C625  1  0.90751318  0.17194777  0.24634117  1
  O  O626  1  0.81496887  0.18988104  0.17050357  1
  H  H627  1  0.87635221  0.18184383  0.22465371  1
  H  H628  1  0.93747575  0.22264665  0.13745983  1
  O  O629  1  0.83306115  0.20607490  0.40585408  1
  Cu  Cu630  1  0.87737315  0.02772239  0.44132862  1
  H  H631  1  0.87400209  0.22277723  0.06286614  1
  Cu  Cu632  1  0.81597202  0.13464428  0.18238127  1
  C  C633  1  0.98049088  0.17598144  0.20425196  1
  O  O634  1  0.89023866  0.07966296  0.45277499  1
  O  O635  1  0.75836759  0.14635313  0.46997595  1
  C  C636  1  0.98701711  0.13861465  0.26895258  1
  C  C637  1  0.92244187  0.00213718  0.18375752  1
  H  H638  1  0.76195708  0.23777867  0.04566265  1
  C  C639  1  0.79527834  0.25294655  0.26293063  1
  C  C640  1  0.79881809  0.28074500  0.38317773  1
  C  C641  1  0.75746981  0.37270002  0.18941572  1
  C  C642  1  0.91694875  0.36500118  0.46284480  1
  C  C643  1  0.75460897  0.29753122  0.10636206  1
  C  C644  1  0.76561776  0.32840331  0.21040320  1
  H  H645  1  0.78541128  0.34176215  0.44842223  1
  C  C646  1  0.76956401  0.26026510  0.13303804  1
  H  H647  1  0.81436366  0.27166145  0.48866795  1
  H  H648  1  0.95662190  0.31777465  0.39412233  1
  C  C649  1  0.79460148  0.47465428  0.25320551  1
  C  C650  1  0.95318438  0.34801940  0.41926243  1
  C  C651  1  0.78274212  0.31852125  0.35413831  1
  H  H652  1  0.84236516  0.34347932  0.32540338  1
  C  C653  1  0.94683340  0.43081967  0.48984123  1
  C  C654  1  0.83883797  0.47781295  0.23979036  1
  C  C655  1  0.98720401  0.37397172  0.39884824  1
  C  C656  1  0.79012236  0.40089561  0.20145071  1
  H  H657  1  0.99562309  0.25000661  0.25510405  1
  C  C658  1  0.85276600  0.35726197  0.21584762  1
  H  H659  1  0.88462233  0.36341470  0.23451863  1
  C  C660  1  0.77045531  0.43847725  0.22237365  1
  H  H661  1  0.85416675  0.45095073  0.18570528  1
  H  H662  1  0.92800222  0.28006924  0.09266116  1
  H  H663  1  0.99699967  0.30399147  0.27184122  1
  O  O664  1  0.82888899  0.39682543  0.21154104  1
  O  O665  1  0.96230064  0.33504264  0.00324341  1
  C  C666  1  0.98197406  0.41650026  0.42486007  1
  H  H667  1  0.81441618  0.33470033  0.01684589  1
  H  H668  1  0.89030057  0.34581738  0.47534830  1
  C  C669  1  0.84412794  0.32884464  0.07682261  1
  H  H670  1  0.84610059  0.29939972  0.12230655  1
  C  C671  1  0.85165522  0.06293885  0.88289954  1
  C  C672  1  0.85736887  0.15081296  0.80352457  1
  C  C673  1  0.77355821  0.18077464  0.78147065  1
  C  C674  1  0.84700802  0.19135406  0.80777503  1
  C  C675  1  0.80763077  0.20631794  0.78618216  1
  C  C676  1  0.93268812  0.16252437  0.81481938  1
  C  C677  1  0.97553574  0.14448555  0.84295904  1
  C  C678  1  0.87913170  0.22370315  0.81191176  1
  C  C679  1  0.82131528  0.12628765  0.80424162  1
  O  O680  1  0.89474117  0.13584693  0.81211917  1
  C  C681  1  0.82206661  0.08185879  0.79423154  1
  C  C682  1  0.78048072  0.13917141  0.79407051  1
  H  H683  1  0.93267590  0.18239863  0.71190238  1
  C  C684  1  0.78857413  0.06293590  0.71116693  1
  O  O685  1  0.78102571  0.02804697  0.68569973  1
  H  H686  1  0.80229191  0.23600274  0.75965319  1
  H  H687  1  0.88866683  0.22519270  0.56273478  1
  C  C688  1  0.84597110  0.02160365  0.88889362  1
  H  H689  1  0.87344297  0.07837283  0.95991806  1
  H  H690  1  0.97877980  0.11786380  0.77796004  1
  H  H691  1  0.92180250  0.18092872  0.91407123  1
  C  C692  1  0.89582108  0.23934820  0.67286883  1
  H  H693  1  0.82140801  0.00823356  0.80509578  1
  H  H694  1  0.76278467  0.07943540  0.64693080  1
  H  H695  1  0.75321702  0.11962502  0.78414482  1
  H  H696  1  0.99877994  0.20476199  0.57471497  1
  H  H697  1  0.98229457  0.13981964  0.96505865  1
  H  H698  1  0.99230520  0.03510896  0.94860626  1
  H  H699  1  0.98151801  0.03406709  0.74541754  1
  Cu  Cu700  1  0.81343812  0.16344720  0.52246326  1
  H  H701  1  0.99781183  0.16603993  0.79532220  1
  C  C702  1  0.88989919  0.23664880  0.96190628  1
  H  H703  1  0.75263561  0.25747332  0.78346157  1
  Cu  Cu704  1  0.83184378  0.48562179  0.62884789  1
  H  H705  1  0.98868670  0.25089609  0.78264731  1
  C  C706  1  0.87532358  0.41721014  0.58682560  1
  Cu  Cu707  1  0.79709453  0.42018534  0.61288215  1
  H  H708  1  0.94028430  0.28059874  0.59676792  1
  O  O709  1  0.87430216  0.45339661  0.62528773  1
  C  C710  1  0.91394042  0.40402922  0.51406353  1
  O  O711  1  0.97165748  0.33697297  0.74648378  1
  H  H712  1  0.86750395  0.33222424  0.98011171  1
  C  C713  1  0.93395595  0.28501765  0.84369231  1
  C  C714  1  0.96004814  0.31934494  0.86688732  1
  C  C715  1  0.92415649  0.26897040  0.69383897  1
  O  O716  1  0.98700216  0.44017500  0.81875792  1
  O  O717  1  0.84689851  0.39419226  0.60728365  1
  Cu  Cu718  1  0.98423632  0.39150197  0.73182758  1
  C  C719  1  0.91764677  0.26783032  0.97759826  1
  H  H720  1  0.94798817  0.46106038  0.52345834  1
  C  C721  1  0.79809090  0.54602265  0.32591050  1
  C  C722  1  0.84002596  0.54587220  0.32793678  1
  H  H723  1  0.78347097  0.57546753  0.34709924  1
  C  C724  1  0.86676266  0.57815184  0.39167471  1
  O  O725  1  0.85482685  0.61005494  0.41662993  1
  C  C726  1  0.77578033  0.51137883  0.29233936  1
  C  C727  1  0.86039272  0.51030831  0.28991929  1
  O  O728  1  0.90941869  0.56819272  0.40560778  1
  H  H729  1  0.92261606  0.59430277  0.42360389  1
  H  H730  1  0.89399361  0.51114845  0.27822164  1
  O  O731  1  0.75145266  0.61850116  0.37152486  1
  H  H732  1  0.80102612  0.82778209  0.47614026  1
  Cu  Cu733  1  0.77860004  0.82549532  0.09920268  1
  H  H734  1  0.97179762  0.87103002  0.16238199  1
  O  O735  1  0.95632499  0.99508651  0.21972555  1
  O  O736  1  0.89827809  0.93557499  0.48679059  1
  O  O737  1  0.83391226  0.83747066  0.10080137  1
  H  H738  1  0.89981130  0.84662892  0.17219875  1
  C  C739  1  0.91158022  0.86209226  0.06885921  1
  C  C740  1  0.89631760  0.97806648  0.05807999  1
  C  C741  1  0.95023850  0.87717363  0.06144736  1
  H  H742  1  0.86315868  0.87139669  0.47597556  1
  H  H743  1  0.89935622  0.94566549  0.04488858  1
  O  O744  1  0.78760386  0.51710660  0.65208317  1
  C  C745  1  0.76426292  0.52964007  0.76976407  1
  O  O746  1  0.77618366  0.52685947  0.90076218  1
  H  H747  1  0.75841788  0.67291064  0.57238568  1
  C  C748  1  0.75935869  0.87495902  0.54343643  1
  C  C749  1  0.83002105  0.92345256  0.54685493  1
  Cu  Cu750  1  0.78652750  0.83723245  0.77245381  1
  H  H751  1  0.86595890  0.90786522  0.75566568  1
  C  C752  1  0.88109302  0.87298198  0.96185625  1
  C  C753  1  0.92936118  0.91048703  0.81621287  1
  C  C754  1  0.79890503  0.85915852  0.50615596  1
  C  C755  1  0.79249202  0.94003287  0.58716899  1
  H  H756  1  0.94795231  0.85144989  0.59216296  1
  C  C757  1  0.95843439  0.90385925  0.93810587  1
  Cu  Cu758  1  0.75976862  0.88764540  0.94777558  1
  C  C759  1  0.87207343  0.99775696  0.97718621  1
  H  H760  1  0.79003238  0.97168828  0.62085022  1
  O  O761  1  0.81077736  0.87060997  0.89745381  1
  H  H762  1  0.97488620  0.97563184  0.90128505  1
  H  H763  1  0.93795736  0.93240305  0.71672078  1
  C  C764  1  0.96639174  0.82533206  0.63319862  1
  O  O765  1  0.75744995  0.79915729  0.64927838  1
  H  H766  1  0.97245197  0.83203172  0.75751921  1
  C  C767  1  0.89015261  0.89814572  0.83549105  1
  H  H768  1  0.94614558  0.79940670  0.61431998  1
  C  C769  1  0.75749028  0.91694095  0.57436176  1
  C  C770  1  0.83295448  0.88296847  0.50704982  1
  C  C771  1  0.86616764  0.94931080  0.53360104  1
  O  O772  1  0.86532908  0.98697428  0.57727853  1
  C  C773  1  0.84079789  0.85878083  0.98512173  1
