# generated using pymatgen
data_CuH15C22O5
_symmetry_space_group_name_H-M   'P 1'
_cell_length_a   33.91865219
_cell_length_b   28.19231606
_cell_length_c   8.79757325
_cell_angle_alpha   90.00000000
_cell_angle_beta   90.00000000
_cell_angle_gamma   90.00000000
_symmetry_Int_Tables_number   1
_chemical_formula_structural   CuH15C22O5
_chemical_formula_sum   'Cu18 H270 C396 O90'
_cell_volume   8412.63862067
_cell_formula_units_Z   18
loop_
 _symmetry_equiv_pos_site_id
 _symmetry_equiv_pos_as_xyz
  1  'x, y, z'
loop_
 _atom_site_type_symbol
 _atom_site_label
 _atom_site_symmetry_multiplicity
 _atom_site_fract_x
 _atom_site_fract_y
 _atom_site_fract_z
 _atom_site_occupancy
  Cu  Cu0  1  0.21621657  0.14649341  0.28871717  1
  H  H1  1  0.12834104  0.11786277  0.29802121  1
  H  H2  1  0.15891550  0.04805408  0.29846341  1
  H  H3  1  0.06222948  0.14712894  0.29504627  1
  O  O4  1  0.03887222  0.04682165  0.18355519  1
  H  H5  1  0.09174353  0.21183816  0.27900637  1
  O  O6  1  0.19188954  0.09999801  0.40557974  1
  O  O7  1  0.09197448  0.11786514  0.08000274  1
  C  C8  1  0.08613094  0.23035624  0.16985506  1
  C  C9  1  0.11426123  0.13034079  0.40500180  1
  C  C10  1  0.07612868  0.14684945  0.40824065  1
  O  O11  1  0.21049182  0.19781133  0.43276675  1
  C  C12  1  0.15696279  0.01109054  0.24285850  1
  H  H13  1  0.23559310  0.23884930  0.22618057  1
  C  C14  1  0.12630016  0.13231459  0.03966819  1
  C  C15  1  0.10882156  0.22214589  0.03672209  1
  C  C16  1  0.15331812  0.00474059  0.08458698  1
  C  C17  1  0.13639896  0.18024336  0.01707785  1
  H  H18  1  0.02886430  0.09367637  0.41148741  1
  C  C19  1  0.18411347  0.23781376  0.44946327  1
  C  C20  1  0.15839955  0.09878432  0.00776730  1
  C  C21  1  0.00762527  0.02179722  0.18881758  1
  H  H22  1  0.04740116  0.00692222  0.48087419  1
  C  C23  1  0.05931413  0.26663256  0.16803300  1
  H  H24  1  0.14508448  0.47894359  0.02923086  1
  C  C25  1  0.07367195  0.40995480  0.38636861  1
  H  H26  1  0.03629080  0.27078926  0.25804869  1
  H  H27  1  0.14597521  0.32102020  0.45936215  1
  C  C28  1  0.01434216  0.48702216  0.00509803  1
  C  C29  1  0.23464214  0.31423652  0.17158504  1
  H  H30  1  0.17879762  0.42600354  0.08017550  1
  H  H31  1  0.16953319  0.39779157  0.33660627  1
  C  C32  1  0.22279126  0.48200004  0.04834384  1
  C  C33  1  0.20841565  0.43738255  0.09354007  1
  C  C34  1  0.02735070  0.33904121  0.04407080  1
  O  O35  1  0.00799758  0.34974734  0.15817465  1
  C  C36  1  0.23520372  0.40522577  0.15035841  1
  O  O37  1  0.23567066  0.43133702  0.45143625  1
  C  C38  1  0.19324483  0.28022426  0.35341190  1
  C  C39  1  0.17169865  0.32279754  0.38184768  1
  C  C40  1  0.21665412  0.35961496  0.20386784  1
  C  C41  1  0.03836977  0.49111269  0.13053772  1
  C  C42  1  0.22314464  0.27349182  0.24806782  1
  C  C43  1  0.18405128  0.36369083  0.30851192  1
  Cu  Cu44  1  0.22764424  0.49056034  0.35161485  1
  C  C45  1  0.10801954  0.43437035  0.39048361  1
  C  C46  1  0.05488104  0.29781580  0.04301432  1
  H  H47  1  0.06138750  0.39491896  0.28427452  1
  O  O48  1  0.17269211  0.48137757  0.38438591  1
  H  H49  1  0.02952735  0.47614219  0.23850037  1
  H  H50  1  0.12501544  0.44308898  0.28653105  1
  C  C51  1  0.01550094  0.33956701  0.49706082  1
  H  H52  1  0.04447413  0.32177404  0.48774579  1
  H  H53  1  0.13838242  0.15214835  0.77140894  1
  H  H54  1  0.06961885  0.17797809  0.78012036  1
  H  H55  1  0.16862937  0.06289318  0.75486225  1
  C  C56  1  0.16457497  0.03224452  0.83861222  1
  C  C57  1  0.08199132  0.16364517  0.67431149  1
  C  C58  1  0.12020209  0.14766264  0.66971499  1
  O  O59  1  0.20126303  0.12918741  0.63420664  1
  H  H60  1  0.03542068  0.09273230  0.60684911  1
  C  C61  1  0.01496784  0.07752413  0.52128458  1
  C  C62  1  0.05755624  0.16334489  0.54360954  1
  H  H63  1  0.21764084  0.08661527  0.92933882  1
  C  C64  1  0.20400659  0.16205165  0.93421011  1
  C  C65  1  0.19522682  0.11334960  0.95721651  1
  C  C66  1  0.01703632  0.18687842  0.53377392  1
  C  C67  1  0.01712300  0.02344222  0.50828667  1
  C  C68  1  0.01757790  0.23633682  0.53632386  1
  C  C69  1  0.13758855  0.12909885  0.53592585  1
  Cu  Cu70  1  0.24307792  0.16139616  0.56375727  1
  C  C71  1  0.17823080  0.11384918  0.53349530  1
  O  O72  1  0.16031173  0.23603008  0.54631952  1
  O  O73  1  0.04279896  0.01546755  0.89514835  1
  C  C74  1  0.24456886  0.17448691  0.87999958  1
  C  C75  1  0.15725708  0.04541886  0.98454886  1
  H  H76  1  0.12543955  0.24780768  0.80908653  1
  H  H77  1  0.24911443  0.05705406  0.52602699  1
  H  H78  1  0.17989452  0.23314204  0.95724459  1
  C  C79  1  0.17327318  0.19466523  0.96539157  1
  H  H80  1  0.00396111  0.00828821  0.61740513  1
  H  H81  1  0.22799051  0.24569182  0.84130208  1
  Cu  Cu82  1  0.06533562  0.06694632  0.99758313  1
  C  C83  1  0.12047154  0.45525807  0.53172018  1
  C  C84  1  0.24420821  0.42183196  0.59323947  1
  H  H85  1  0.11208420  0.47319193  0.78158655  1
  C  C86  1  0.10528069  0.25306867  0.90486535  1
  O  O87  1  0.02302636  0.36579451  0.92747337  1
  H  H88  1  0.04636898  0.25529438  0.54075589  1
  C  C89  1  0.06651975  0.42969043  0.67034513  1
  C  C90  1  0.10088836  0.45637875  0.67419940  1
  C  C91  1  0.01207595  0.38764157  0.52070953  1
  O  O92  1  0.23783972  0.45328917  0.68818269  1
  H  H93  1  0.04947931  0.42757143  0.77040092  1
  C  C94  1  0.05334081  0.40902815  0.53132839  1
  C  C95  1  0.07662143  0.28989626  0.90979150  1
  H  H96  1  0.07204285  0.31278867  0.81201266  1
  C  C97  1  0.15737190  0.48069737  0.51852743  1
  C  C98  1  0.16560848  0.68645332  0.20592487  1
  C  C99  1  0.17767107  0.64046809  0.24226625  1
  C  C100  1  0.17364783  0.72666627  0.30761487  1
  O  O101  1  0.03948465  0.59831236  0.18320183  1
  C  C102  1  0.19675737  0.63237814  0.38401642  1
  H  H103  1  0.06664472  0.60774017  0.15632777  1
  C  C104  1  0.21372968  0.58563705  0.41140567  1
  O  O105  1  0.21659290  0.55367127  0.31173356  1
  H  H106  1  0.09230568  0.72426274  0.19123967  1
  H  H107  1  0.17359006  0.61275810  0.15956276  1
  H  H108  1  0.15146453  0.68995246  0.09428270  1
  H  H109  1  0.04309907  0.70750153  0.42248609  1
  C  C110  1  0.04293462  0.73904972  0.34124677  1
  C  C111  1  0.19034143  0.71712097  0.45510792  1
  C  C112  1  0.02138383  0.64084265  0.09193087  1
  H  H113  1  0.02114815  0.73564717  0.24795865  1
  H  H114  1  0.09434066  0.51535839  0.21562682  1
  C  C115  1  0.07469856  0.51233609  0.11560252  1
  C  C116  1  0.20180046  0.67136206  0.48817475  1
  H  H117  1  0.12583830  0.67452537  0.43891595  1
  O  O118  1  0.03999818  0.67553112  0.06670193  1
  H  H119  1  0.10806650  0.74631512  0.36986494  1
  C  C120  1  0.08494616  0.74887772  0.28430783  1
  C  C121  1  0.13657384  0.80857207  0.23710230  1
  C  C122  1  0.20909901  0.79328083  0.28234804  1
  H  H123  1  0.01822296  0.92389643  0.48411365  1
  H  H124  1  0.08923615  0.90835796  0.30543478  1
  H  H125  1  0.03176073  0.77021067  0.41092180  1
  O  O126  1  0.09897639  0.79717650  0.22652881  1
  C  C127  1  0.16486349  0.97001943  0.33277841  1
  C  C128  1  0.07902477  0.95278120  0.09062066  1
  C  C129  1  0.09681099  0.91873591  0.18606512  1
  C  C130  1  0.15210080  0.85322777  0.19064961  1
  H  H131  1  0.19742550  0.90582988  0.14773369  1
  C  C132  1  0.19004324  0.86940568  0.18789141  1
  H  H133  1  0.05830920  0.98040157  0.13292221  1
  H  H134  1  0.23260135  0.76760440  0.32106035  1
  H  H135  1  0.15457640  0.97084920  0.03105350  1
  H  H136  1  0.17120953  0.93595921  0.28455101  1
  C  C137  1  0.22075082  0.83890612  0.23826297  1
  C  C138  1  0.16870323  0.77983066  0.28244614  1
  C  C139  1  0.12538375  0.88979546  0.11453133  1
  C  C140  1  0.16768341  0.97750414  0.49337115  1
  H  H141  1  0.00326221  0.81620222  0.08008121  1
  H  H142  1  0.09317414  0.79514127  0.47968107  1
  C  C143  1  0.18747227  0.68280741  0.80878472  1
  C  C144  1  0.20909144  0.72418317  0.78393169  1
  H  H145  1  0.06880095  0.68317152  0.79185999  1
  C  C146  1  0.04501151  0.70230209  0.72938717  1
  O  O147  1  0.11565256  0.62764931  0.79760709  1
  C  C148  1  0.12373236  0.63621191  0.66103368  1
  C  C149  1  0.14241561  0.59123116  0.87157335  1
  C  C150  1  0.20764172  0.63980236  0.82504282  1
  C  C151  1  0.18355455  0.59799149  0.88482124  1
  H  H152  1  0.14814423  0.61286262  0.63278414  1
  H  H153  1  0.15586871  0.68379157  0.81577698  1
  C  C154  1  0.05990355  0.53652655  0.85668612  1
  H  H155  1  0.06791767  0.55307484  0.75236115  1
  Cu  Cu156  1  0.23124947  0.51753214  0.64455909  1
  H  H157  1  0.21659985  0.66653400  0.59573215  1
  C  C158  1  0.12949953  0.54906460  0.93531808  1
  C  C159  1  0.02425442  0.51109280  0.86843693  1
  C  C160  1  0.01083671  0.67722081  0.68984457  1
  O  O161  1  0.22452880  0.58046189  0.55008403  1
  C  C162  1  0.08798610  0.53189207  0.97823295  1
  O  O163  1  0.17380373  0.50432891  0.62306202  1
  H  H164  1  0.00508052  0.64132205  0.72767170  1
  C  C165  1  0.20999782  0.56404508  0.94715785  1
  H  H166  1  0.24035590  0.57607827  0.96649051  1
  C  C167  1  0.19498948  0.51896215  0.98006866  1
  H  H168  1  0.19355820  0.74645056  0.54071829  1
  H  H169  1  0.10221191  0.70503544  0.59247552  1
  C  C170  1  0.10588851  0.66925672  0.54436465  1
  C  C171  1  0.15344264  0.51151037  0.98432418  1
  H  H172  1  0.07602070  0.65549833  0.51934300  1
  C  C173  1  0.24932522  0.63658730  0.80146184  1
  C  C174  1  0.04667934  0.74980348  0.68701807  1
  C  C175  1  0.24882529  0.72051131  0.76535332  1
  H  H176  1  0.00436404  0.50591110  0.77019348  1
  O  O177  1  0.17136507  0.99045108  0.78183509  1
  H  H178  1  0.09423942  0.75264483  0.95449896  1
  H  H179  1  0.19446698  0.75938061  0.78020423  1
  C  C180  1  0.14276880  0.81750011  0.60286914  1
  C  C181  1  0.20040671  0.83759745  0.75900082  1
  C  C182  1  0.10629141  0.77304029  0.86234640  1
  O  O183  1  0.02203803  0.82517087  0.60535300  1
  H  H184  1  0.04292991  0.90123402  0.96926473  1
  C  C185  1  0.01712625  0.89309191  0.90482123  1
  C  C186  1  0.13555311  0.89043030  0.95302972  1
  C  C187  1  0.16196623  0.81699541  0.74627176  1
  H  H188  1  0.01983527  0.86754656  0.81679902  1
  C  C189  1  0.14314700  0.79467957  0.87575855  1
  H  H190  1  0.15931474  0.79508789  0.98305282  1
  C  C191  1  0.08761368  0.95135393  0.93780475  1
  C  C192  1  0.11627624  0.92305199  0.86305276  1
  O  O193  1  0.21399351  0.85570840  0.63383798  1
  C  C194  1  0.16957309  0.98442908  0.62964190  1
  H  H195  1  0.12159390  0.91961477  0.73942204  1
  C  C196  1  0.06831354  0.98620498  0.83017398  1
  C  C197  1  0.08912117  0.76915108  0.71392132  1
  H  H198  1  0.15680991  0.86612400  0.90432876  1
  C  C199  1  0.10754979  0.79355844  0.59188796  1
  O  O200  1  0.21847776  0.84123373  0.88333258  1
  C  C201  1  0.01639589  0.77958194  0.63337960  1
  H  H202  1  0.15780292  0.83285360  0.50436462  1
  O  O203  1  0.07706041  0.98929966  0.69757860  1
  H  H204  1  0.00017979  0.79487349  0.88575787  1
  C  C205  1  0.33636673  0.19601616  0.11401426  1
  C  C206  1  0.32914211  0.19696363  0.27196081  1
  C  C207  1  0.29248899  0.17737713  0.33186393  1
  C  C208  1  0.47380329  0.21684521  0.12819095  1
  C  C209  1  0.43687187  0.14146928  0.22945574  1
  O  O210  1  0.47461747  0.17463661  0.18624115  1
  H  H211  1  0.42706545  0.15365444  0.33798821  1
  C  C212  1  0.35752653  0.21447336  0.37406914  1
  H  H213  1  0.41622264  0.15595482  0.14026743  1
  O  O214  1  0.35173298  0.07657686  0.26058162  1
  C  C215  1  0.43941411  0.08684493  0.21633068  1
  O  O216  1  0.26704622  0.16034987  0.24193930  1
  C  C217  1  0.34091291  0.03760228  0.23814376  1
  H  H218  1  0.45521660  0.06863474  0.31215934  1
  C  C219  1  0.39988018  0.23013976  0.15678647  1
  C  C220  1  0.39404726  0.22871462  0.31709298  1
  H  H221  1  0.45384468  0.07632746  0.11190596  1
  H  H222  1  0.40973695  0.06827136  0.21078307  1
  C  C223  1  0.37118534  0.21242864  0.05194622  1
  H  H224  1  0.31225374  0.18235163  0.04086127  1
  H  H225  1  0.30620454  0.04139358  0.25042846  1
  C  C226  1  0.44025725  0.24714444  0.10325283  1
  H  H227  1  0.35206165  0.21451408  0.49686004  1
  O  O228  1  0.28602993  0.18036344  0.47273935  1
  H  H229  1  0.40898321  0.08634925  0.47084802  1
  H  H230  1  0.41534137  0.23583861  0.40217133  1
  C  C231  1  0.26335355  0.49051289  0.07032467  1
  H  H232  1  0.36601965  0.32521875  0.39613134  1
  H  H233  1  0.33726633  0.48296537  0.36725841  1
  H  H234  1  0.34528406  0.40809180  0.27745257  1
  C  C235  1  0.33296924  0.47313280  0.11087690  1
  C  C236  1  0.35245629  0.48495043  0.25310852  1
  C  C237  1  0.27775924  0.40882918  0.16069379  1
  H  H238  1  0.40279644  0.35263335  0.27525417  1
  H  H239  1  0.26386166  0.35312845  0.40458398  1
  H  H240  1  0.28539077  0.26969104  0.49556357  1
  C  C241  1  0.34494235  0.37405412  0.20687296  1
  H  H242  1  0.25758724  0.30843035  0.08480125  1
  C  C243  1  0.29088717  0.45451332  0.11900236  1
  O  O244  1  0.29853292  0.37206655  0.20172773  1
  C  C245  1  0.37308333  0.33687842  0.27399181  1
  H  H246  1  0.35598443  0.38513657  0.08976921  1
  H  H247  1  0.37439651  0.30432780  0.20270410  1
  H  H248  1  0.40895571  0.31161837  0.02627966  1
  C  C249  1  0.47287501  0.31597315  0.00973885  1
  C  C250  1  0.43752520  0.29429881  0.05143449  1
  C  C251  1  0.36396193  0.11987104  0.61148802  1
  C  C252  1  0.40034340  0.04706853  0.69073629  1
  C  C253  1  0.32179967  0.20681721  0.75884566  1
  C  C254  1  0.34189433  0.12183637  0.75591232  1
  C  C255  1  0.31185979  0.15826376  0.79460406  1
  C  C256  1  0.35342295  0.08573123  0.85888426  1
  C  C257  1  0.37776168  0.04675385  0.82668167  1
  C  C258  1  0.27602561  0.14241412  0.85075064  1
  H  H259  1  0.27450593  0.10463749  0.88157633  1
  O  O260  1  0.35688033  0.22100394  0.71980835  1
  H  H261  1  0.37639821  0.21294458  0.92490492  1
  C  C262  1  0.48404523  0.08798830  0.86942690  1
  C  C263  1  0.46776543  0.13038153  0.87071048  1
  H  H264  1  0.43706593  0.13665475  0.82952446  1
  H  H265  1  0.38439075  0.01922594  0.91062570  1
  C  C266  1  0.25350332  0.22137699  0.83479648  1
  H  H267  1  0.48493032  0.16104120  0.90236325  1
  C  C268  1  0.43400063  0.01409442  0.65562864  1
  C  C269  1  0.30438024  0.03655859  0.60442534  1
  C  C270  1  0.39249651  0.08584944  0.58853863  1
  H  H271  1  0.46801762  0.05614673  0.83333231  1
  H  H272  1  0.48585637  0.10979435  0.60766005  1
  H  H273  1  0.35692269  0.14760287  0.53081658  1
  C  C274  1  0.28930801  0.23749769  0.78128594  1
  O  O275  1  0.45566592  0.01941853  0.54750580  1
  H  H276  1  0.31897270  0.06469779  0.54095288  1
  C  C277  1  0.26589210  0.03178764  0.59862435  1
  H  H278  1  0.48678009  0.17245705  0.60056794  1
  H  H279  1  0.33803955  0.08686834  0.97195370  1
  H  H280  1  0.25152800  0.00316206  0.65551852  1
  H  H281  1  0.32534451  0.01413041  0.67424996  1
  H  H282  1  0.33401705  0.47217149  0.86751726  1
  C  C283  1  0.36646475  0.27563921  0.71779628  1
  H  H284  1  0.40114913  0.34158141  0.67117944  1
  C  C285  1  0.28107253  0.29834670  0.57566143  1
  C  C286  1  0.40583829  0.30139367  0.69081987  1
  C  C287  1  0.27198506  0.37005202  0.79420235  1
  H  H288  1  0.34935906  0.29162980  0.81409684  1
  H  H289  1  0.42177929  0.28407882  0.59626944  1
  H  H290  1  0.47373641  0.35182401  0.96177514  1
  C  C291  1  0.26973375  0.34389067  0.52420640  1
  H  H292  1  0.29555533  0.31883317  0.96451730  1
  C  C293  1  0.28720101  0.32664221  0.84389391  1
  H  H294  1  0.26964748  0.40077067  0.87258487  1
  C  C295  1  0.28731059  0.29026467  0.73164726  1
  C  C296  1  0.35120329  0.47988104  0.97005530  1
  H  H297  1  0.34755084  0.28087170  0.61222996  1
  C  C298  1  0.26152742  0.37703231  0.63757235  1
  O  O299  1  0.32421630  0.47367310  0.62328780  1
  H  H300  1  0.39405295  0.47917645  0.59855231  1
  H  H301  1  0.42611016  0.29864365  0.78693831  1
  C  C302  1  0.39400221  0.70705243  0.30085545  1
  O  O303  1  0.43587569  0.62459311  0.25111296  1
  O  O304  1  0.46506408  0.53707063  0.21377707  1
  H  H305  1  0.40697244  0.68984784  0.40039158  1
  C  C306  1  0.42225286  0.64733412  0.13613328  1
  C  C307  1  0.39859165  0.69121536  0.15000041  1
  C  C308  1  0.44818766  0.52812771  0.08779490  1
  C  C309  1  0.38993332  0.50096497  0.24490162  1
  Cu  Cu310  1  0.48688762  0.59698834  0.25365390  1
  C  C311  1  0.37140238  0.74818196  0.31919073  1
  C  C312  1  0.40882116  0.50843717  0.10164332  1
  H  H313  1  0.40393580  0.51008489  0.34921729  1
  C  C314  1  0.38147349  0.71621589  0.02682645  1
  O  O315  1  0.42753394  0.63098901  0.00803440  1
  H  H316  1  0.27426780  0.52674799  0.05075120  1
  C  C317  1  0.36251613  0.75882513  0.04038003  1
  C  C318  1  0.35908345  0.98896721  0.21202475  1
  C  C319  1  0.26491159  0.85053153  0.23775176  1
  H  H320  1  0.49669929  0.98092892  0.28212922  1
  O  O321  1  0.49826250  0.89608555  0.48017437  1
  C  C322  1  0.32252768  0.90338133  0.23443989  1
  C  C323  1  0.42029093  0.82649137  0.19887279  1
  H  H324  1  0.48145881  0.80910344  0.26272947  1
  H  H325  1  0.46929728  0.86886643  0.28448675  1
  H  H326  1  0.35422876  0.90298335  0.47794083  1
  H  H327  1  0.47786988  0.84718458  0.10208546  1
  C  C328  1  0.46450684  0.83769725  0.21050762  1
  C  C329  1  0.35309765  0.86499434  0.23148252  1
  C  C330  1  0.33774935  0.94959751  0.22510575  1
  H  H331  1  0.38980152  0.98751038  0.16992693  1
  O  O332  1  0.39005534  0.87185950  0.21104428  1
  H  H333  1  0.36418216  0.75866211  0.44018892  1
  C  C334  1  0.35680590  0.77565384  0.19439571  1
  C  C335  1  0.28091050  0.89759903  0.23838840  1
  H  H336  1  0.41587866  0.80160215  0.10287697  1
  H  H337  1  0.26249061  0.92901708  0.23778180  1
  H  H338  1  0.41187157  0.81004226  0.31025635  1
  H  H339  1  0.28231621  0.77748918  0.21967536  1
  H  H340  1  0.42608951  0.88822278  0.41397107  1
  C  C341  1  0.29249492  0.81356298  0.23014540  1
  C  C342  1  0.33307592  0.82096458  0.22123011  1
  C  C343  1  0.43033907  0.59447552  0.62275899  1
  C  C344  1  0.35898744  0.54408996  0.64049981  1
  C  C345  1  0.35835401  0.59387431  0.66134883  1
  O  O346  1  0.28760064  0.53355594  0.68918969  1
  C  C347  1  0.39395137  0.61891753  0.64675079  1
  H  H348  1  0.30316854  0.67915284  0.76928342  1
  C  C349  1  0.46812869  0.66791941  0.60084168  1
  H  H350  1  0.44138912  0.68608706  0.61031808  1
  C  C351  1  0.46860028  0.61886744  0.60446923  1
  C  C352  1  0.27003768  0.67861108  0.77889852  1
  H  H353  1  0.26423063  0.60117976  0.79798427  1
  H  H354  1  0.33237737  0.61121658  0.70262837  1
  H  H355  1  0.39334523  0.65945096  0.63436680  1
  C  C356  1  0.39449057  0.51849668  0.61536672  1
  C  C357  1  0.42900138  0.54389949  0.59620624  1
  H  H358  1  0.45616595  0.52539135  0.55488798  1
  C  C359  1  0.32095458  0.51480204  0.64474935  1
  H  H360  1  0.38342599  0.70051619  0.91027165  1
  H  H361  1  0.40322627  0.51223974  0.85628248  1
  O  O362  1  0.49899295  0.67154927  0.93853231  1
  Cu  Cu363  1  0.48492522  0.60670593  0.95517272  1
  C  C364  1  0.38816363  0.50298794  0.96302237  1
  O  O365  1  0.46285781  0.54272558  0.96201043  1
  Cu  Cu366  1  0.26528633  0.84317102  0.55641627  1
  H  H367  1  0.44555118  0.76047447  0.68116215  1
  C  C368  1  0.41519631  0.87958396  0.52740111  1
  O  O369  1  0.29605256  0.89835035  0.64517213  1
  C  C370  1  0.38723690  0.86491898  0.82448718  1
  O  O371  1  0.43869156  0.97662331  0.74209092  1
  H  H372  1  0.44223063  0.83335180  0.88034056  1
  O  O373  1  0.30874580  0.87845591  0.88270657  1
  Cu  Cu374  1  0.27070992  0.82862232  0.92172305  1
  H  H375  1  0.35301389  0.78096139  0.94064766  1
  C  C376  1  0.42453996  0.84750268  0.78823827  1
  Cu  Cu377  1  0.47313268  0.92310271  0.73394777  1
  H  H378  1  0.37605401  0.85934613  0.93612202  1
  C  C379  1  0.43843194  0.85343474  0.63718577  1
  O  O380  1  0.29455644  0.78063331  0.81549839  1
  C  C381  1  0.27078863  0.76123562  0.72206520  1
  C  C382  1  0.36132624  0.88162157  0.71243617  1
  O  O383  1  0.26182133  0.77645663  0.59579851  1
  C  C384  1  0.47143747  0.82345533  0.57434438  1
  C  C385  1  0.31953968  0.88611195  0.74726565  1
  C  C386  1  0.37620091  0.88964708  0.56328001  1
  C  C387  1  0.46915184  0.77550527  0.60611736  1
  C  C388  1  0.61983947  0.17427050  0.15110308  1
  C  C389  1  0.65607356  0.14908366  0.16863795  1
  C  C390  1  0.54806702  0.21968176  0.10352089  1
  O  O391  1  0.66281058  0.12918904  0.29989152  1
  C  C392  1  0.59037290  0.17245397  0.26627841  1
  O  O393  1  0.71146840  0.05332142  0.34776090  1
  C  C394  1  0.55553188  0.19757458  0.24924305  1
  H  H395  1  0.56434951  0.03299752  0.09791138  1
  H  H396  1  0.53507458  0.20046188  0.33832297  1
  H  H397  1  0.59586913  0.15331858  0.37753418  1
  Cu  Cu398  1  0.71487583  0.12034331  0.36293878  1
  Cu  Cu399  1  0.73545243  0.15245401  0.11793740  1
  O  O400  1  0.68264104  0.14780992  0.06592246  1
  C  C401  1  0.74817753  0.24904299  0.25333760  1
  O  O402  1  0.73557469  0.21976145  0.14041304  1
  C  C403  1  0.69770474  0.02885490  0.46073608  1
  C  C404  1  0.50842188  0.24248798  0.08186985  1
  O  O405  1  0.74747337  0.23898008  0.38454791  1
  H  H406  1  0.50010856  0.13986734  0.42896317  1
  C  C407  1  0.61268609  0.19884807  0.01325229  1
  C  C408  1  0.66336401  0.33896544  0.27720743  1
  H  H409  1  0.70419764  0.36212947  0.09801945  1
  H  H410  1  0.64050234  0.32870073  0.18704142  1
  H  H411  1  0.57947390  0.34666797  0.46081308  1
  H  H412  1  0.58006027  0.25847492  0.47067757  1
  C  C413  1  0.71404038  0.45367899  0.10495543  1
  H  H414  1  0.71921770  0.37484130  0.29714883  1
  H  H415  1  0.64817616  0.35344768  0.38620312  1
  C  C416  1  0.69422576  0.37281335  0.21906134  1
  H  H417  1  0.67664286  0.30405504  0.32002024  1
  O  O418  1  0.68550034  0.42764396  0.15812535  1
  H  H419  1  0.65794653  0.49460073  0.31139337  1
  C  C420  1  0.50745902  0.28917321  0.02094060  1
  C  C421  1  0.61098707  0.17110456  0.66310342  1
  C  C422  1  0.66623734  0.11956550  0.73863897  1
  C  C423  1  0.62567812  0.12764063  0.72457984  1
  C  C424  1  0.69725298  0.15306360  0.70469415  1
  C  C425  1  0.59057278  0.04511842  0.65687688  1
  C  C426  1  0.68216752  0.19676064  0.64736595  1
  C  C427  1  0.64097683  0.20728966  0.65252694  1
  O  O428  1  0.57486647  0.18036798  0.62976211  1
  H  H429  1  0.67549721  0.08748850  0.78312531  1
  C  C430  1  0.60453383  0.08071082  0.76401232  1
  C  C431  1  0.54503297  0.13766466  0.62133955  1
  H  H432  1  0.54414677  0.13164718  0.74600893  1
  C  C433  1  0.56660253  0.00802038  0.71146630  1
  C  C434  1  0.55909168  0.00472166  0.86955086  1
  C  C435  1  0.59139818  0.07837889  0.91753266  1
  C  C436  1  0.50246893  0.14030414  0.55778679  1
  H  H437  1  0.56466380  0.11314773  0.55947542  1
  H  H438  1  0.70430575  0.22103675  0.61086374  1
  H  H439  1  0.63539807  0.19841414  0.91497362  1
  C  C440  1  0.57190670  0.03840862  0.97422990  1
  H  H441  1  0.57259047  0.23944096  0.87186402  1
  H  H442  1  0.59775829  0.11051647  0.98878641  1
  H  H443  1  0.73721266  0.06654809  0.72367179  1
  C  C444  1  0.73981647  0.14469897  0.75038911  1
  H  H445  1  0.51502713  0.08309022  0.90081983  1
  O  O446  1  0.66642434  0.03764972  0.51668961  1
  C  C447  1  0.57752407  0.22122784  0.97960968  1
  H  H448  1  0.59248250  0.05035682  0.53498732  1
  H  H449  1  0.53555764  0.30336749  0.98279650  1
  O  O450  1  0.60458749  0.42558923  0.51598981  1
  H  H451  1  0.68217755  0.27047928  0.77849474  1
  C  C452  1  0.66038872  0.28570758  0.70519733  1
  O  O453  1  0.65269172  0.43509501  0.67896402  1
  C  C454  1  0.63244715  0.25805967  0.62391709  1
  C  C455  1  0.60157754  0.27793586  0.53098996  1
  Cu  Cu456  1  0.70670697  0.44531527  0.65593052  1
  C  C457  1  0.65848971  0.33420622  0.69278341  1
  C  C458  1  0.60135443  0.32748261  0.52302852  1
  C  C459  1  0.62815598  0.35585451  0.60977056  1
  H  H460  1  0.67826586  0.35802588  0.76461230  1
  C  C461  1  0.62785385  0.40807234  0.60297925  1
  O  O462  1  0.53950544  0.57381090  0.25128160  1
  C  C463  1  0.61424351  0.54143405  0.23699227  1
  H  H464  1  0.58919414  0.71030049  0.21985759  1
  C  C465  1  0.59370140  0.72573558  0.10818742  1
  C  C466  1  0.59784216  0.56201565  0.10383023  1
  C  C467  1  0.55602740  0.57668602  0.12113568  1
  C  C468  1  0.52872067  0.69623012  0.05562877  1
  H  H469  1  0.59418653  0.53773527  0.34140083  1
  O  O470  1  0.52048286  0.68743796  0.18255206  1
  C  C471  1  0.64881898  0.51836086  0.21950891  1
  C  C472  1  0.67069259  0.52284150  0.08037705  1
  H  H473  1  0.67897165  0.61947621  0.41120076  1
  C  C474  1  0.65319566  0.60407680  0.47038218  1
  H  H475  1  0.60641287  0.64491800  0.36264199  1
  C  C476  1  0.72401565  0.73531045  0.31666672  1
  O  O477  1  0.68925541  0.73508793  0.31459716  1
  C  C478  1  0.74598691  0.70602341  0.42843977  1
  C  C479  1  0.71207314  0.50211229  0.06437378  1
  C  C480  1  0.63025442  0.74728366  0.06873906  1
  H  H481  1  0.55793362  0.74667922  0.43325042  1
  C  C482  1  0.74061716  0.53278972  0.01030959  1
  C  C483  1  0.61397322  0.61999587  0.45297584  1
  O  O484  1  0.52216725  0.96137964  0.04797050  1
  H  H485  1  0.61540567  0.95489875  0.18754041  1
  H  H486  1  0.51488504  0.99702598  0.46983180  1
  H  H487  1  0.65545168  0.75237447  0.16104296  1
  H  H488  1  0.68574319  0.96483094  0.28518926  1
  H  H489  1  0.55878511  0.92139045  0.44895438  1
  H  H490  1  0.54732300  0.99765156  0.29205177  1
  C  C491  1  0.64198756  0.96437414  0.11268649  1
  C  C492  1  0.67823072  0.96907960  0.16442815  1
  C  C493  1  0.59170658  0.82933836  0.25679151  1
  H  H494  1  0.70196774  0.97603821  0.08134709  1
  C  C495  1  0.69447282  0.86598955  0.33570743  1
  C  C496  1  0.53184636  0.81838398  0.44749537  1
  C  C497  1  0.52251227  0.97846166  0.35672065  1
  H  H498  1  0.64314492  0.83316943  0.11194018  1
  C  C499  1  0.63048183  0.83948242  0.22838184  1
  O  O500  1  0.71347717  0.85782154  0.21274949  1
  C  C501  1  0.57283027  0.83513313  0.39781904  1
  C  C502  1  0.65286641  0.85701072  0.35094978  1
  H  H503  1  0.53281035  0.90083283  0.29414029  1
  O  O504  1  0.74602950  0.76120730  0.22675663  1
  H  H505  1  0.57637126  0.80847028  0.16745310  1
  C  C506  1  0.53047849  0.92590083  0.38913479  1
  O  O507  1  0.71486122  0.87890753  0.45105728  1
  C  C508  1  0.53250753  0.76847976  0.46878813  1
  C  C509  1  0.50178644  0.84987970  0.49743426  1
  C  C510  1  0.63512621  0.86249523  0.49977418  1
  C  C511  1  0.62797139  0.54064169  0.64488842  1
  H  H512  1  0.56643922  0.54164568  0.68568228  1
  H  H513  1  0.67582388  0.56228042  0.87601683  1
  H  H514  1  0.60332141  0.58964644  0.87126643  1
  C  C515  1  0.59010568  0.55943240  0.62546134  1
  H  H516  1  0.51571328  0.68255728  0.85621795  1
  H  H517  1  0.72928511  0.63219611  0.73205584  1
  O  O518  1  0.50862690  0.54709505  0.59074233  1
  C  C519  1  0.53991021  0.61877815  0.55210240  1
  C  C520  1  0.53725945  0.66811560  0.54123496  1
  O  O521  1  0.70626409  0.51273610  0.68377511  1
  C  C522  1  0.50547469  0.59004020  0.58483130  1
  C  C523  1  0.58129201  0.59998404  0.53538093  1
  H  H524  1  0.56355780  0.68685282  0.51947071  1
  C  C525  1  0.65960170  0.56433902  0.56776170  1
  C  C526  1  0.65562153  0.55339185  0.96874706  1
  C  C527  1  0.69895917  0.54391670  0.58643193  1
  H  H528  1  0.54352888  0.73955237  0.75958550  1
  C  C529  1  0.56770069  0.73821955  0.84559553  1
  H  H530  1  0.63231889  0.50666364  0.70487552  1
  C  C531  1  0.72556360  0.67975000  0.54002552  1
  H  H532  1  0.69355532  0.67554027  0.54043494  1
  H  H533  1  0.72157322  0.74433717  0.95534624  1
  C  C534  1  0.50215631  0.69403365  0.56527086  1
  H  H535  1  0.73207778  0.57007971  0.99361664  1
  C  C536  1  0.61686718  0.56900224  0.96687574  1
  C  C537  1  0.50096296  0.74810263  0.54923475  1
  C  C538  1  0.74604056  0.65456569  0.64527287  1
  C  C539  1  0.56474772  0.72213401  0.99573807  1
  O  O540  1  0.54087337  0.58944128  0.99867730  1
  O  O541  1  0.72817761  0.56668920  0.51707277  1
  C  C542  1  0.71802873  0.96691978  0.65029258  1
  O  O543  1  0.51999264  0.93271634  0.81396388  1
  C  C544  1  0.67949987  0.96355403  0.70692213  1
  C  C545  1  0.72755002  0.99655443  0.53415177  1
  H  H546  1  0.65237425  0.87395757  0.59431333  1
  H  H547  1  0.58058867  0.86013908  0.63558946  1
  C  C548  1  0.66183203  0.84214603  0.85786429  1
  H  H549  1  0.60855423  0.78207211  0.70427557  1
  O  O550  1  0.62006171  0.86868378  0.84539114  1
  C  C551  1  0.67028091  0.91947603  0.77407313  1
  C  C552  1  0.73330079  0.86299635  0.82246874  1
  H  H553  1  0.74213557  0.94138063  0.69315207  1
  C  C554  1  0.59508948  0.85549373  0.52194413  1
  C  C555  1  0.74297839  0.81512634  0.86676505  1
  H  H556  1  0.65679412  0.99103197  0.67684958  1
  C  C557  1  0.60368955  0.76247649  0.80801046  1
  C  C558  1  0.71375091  0.78049573  0.90315561  1
  H  H559  1  0.55181731  0.98202494  0.64023470  1
  C  C560  1  0.63497320  0.76488052  0.91849700  1
  C  C561  1  0.63061603  0.90989383  0.80197090  1
  C  C562  1  0.53131276  0.96491444  0.91980269  1
  H  H563  1  0.60942165  0.93814841  0.77901947  1
  C  C564  1  0.67372549  0.79609276  0.88859914  1
  C  C565  1  0.69251011  0.87399819  0.81703155  1
  H  H566  1  0.63351827  0.97006612  0.98885065  1
  C  C567  1  0.86054681  0.16214380  0.29264943  1
  C  C568  1  0.89895076  0.17235254  0.33683141  1
  C  C569  1  0.79257327  0.13614641  0.33406277  1
  O  O570  1  0.78406477  0.14830737  0.19878732  1
  H  H571  1  0.91734740  0.19235332  0.25954435  1
  H  H572  1  0.84796642  0.17044376  0.17696178  1
  H  H573  1  0.92519616  0.08815672  0.07705800  1
  C  C574  1  0.90030973  0.07326351  0.13430954  1
  C  C575  1  0.83251314  0.14246084  0.39580451  1
  H  H576  1  0.89442880  0.09184191  0.24412568  1
  H  H577  1  0.77225112  0.02587404  0.38498582  1
  H  H578  1  0.91063590  0.03873747  0.17590397  1
  O  O579  1  0.76863672  0.11383426  0.41553835  1
  C  C580  1  0.91033743  0.15790742  0.48634809  1
  O  O581  1  0.83957081  0.00201961  0.33545510  1
  H  H582  1  0.79878138  0.23699871  0.09168553  1
  C  C583  1  0.86225376  0.07372817  0.03556566  1
  H  H584  1  0.83379888  0.06612246  0.10136782  1
  H  H585  1  0.99567910  0.01568702  0.41775066  1
  C  C586  1  0.82289252  0.24816521  0.00624489  1
  C  C587  1  0.76971041  0.39068192  0.10571245  1
  C  C588  1  0.78644104  0.46729299  0.01784792  1
  C  C589  1  0.78166720  0.37482632  0.25290979  1
  C  C590  1  0.88625561  0.43998723  0.38894895  1
  H  H591  1  0.93829331  0.48599801  0.45768953  1
  Cu  Cu592  1  0.95752026  0.37699053  0.17460460  1
  C  C593  1  0.85008493  0.28399286  0.03562514  1
  C  C594  1  0.84801159  0.45804422  0.41082268  1
  C  C595  1  0.76075458  0.30770848  0.03599561  1
  O  O596  1  0.96920617  0.43869848  0.13493807  1
  C  C597  1  0.98139739  0.45320587  0.01011762  1
  H  H598  1  0.84615228  0.30781939  0.14052144  1
  O  O599  1  0.77191961  0.48395484  0.42393316  1
  H  H600  1  0.90335416  0.44998398  0.29055299  1
  H  H601  1  0.83451723  0.48050055  0.32269408  1
  H  H602  1  0.79211498  0.40009118  0.34370103  1
  H  H603  1  0.77726426  0.31739410  0.42293448  1
  C  C604  1  0.77542193  0.32825630  0.30361667  1
  C  C605  1  0.75534522  0.44081575  0.06968384  1
  O  O606  1  0.91597557  0.34278597  0.09597973  1
  C  C607  1  0.76071304  0.29798988  0.19334096  1
  H  H608  1  0.91335405  0.32314825  0.48482979  1
  C  C609  1  0.94167709  0.34022680  0.49492850  1
  C  C610  1  0.80298289  0.17240582  0.85619021  1
  C  C611  1  0.79168120  0.08864137  0.83503402  1
  C  C612  1  0.80377319  0.03446203  0.81679125  1
  C  C613  1  0.76481175  0.18221774  0.79753364  1
  H  H614  1  0.89344310  0.12194969  0.70412973  1
  H  H615  1  0.93884299  0.04299270  0.55089246  1
  C  C616  1  0.81838249  0.12609473  0.88484095  1
  C  C617  1  0.82953496  0.21549238  0.88714415  1
  O  O618  1  0.93284972  0.03980516  0.80608326  1
  H  H619  1  0.86348293  0.05000257  0.93727872  1
  H  H620  1  0.82489469  0.11399095  0.62574314  1
  O  O621  1  0.92144077  0.01572119  0.55498774  1
  H  H622  1  0.86399635  0.20570200  0.67652679  1
  C  C623  1  0.83344879  0.02939534  0.72100294  1
  C  C624  1  0.88378937  0.13590261  0.59098127  1
  O  O625  1  0.97910191  0.10981893  0.51239584  1
  C  C626  1  0.98381680  0.15488224  0.52372883  1
  H  H627  1  0.75696684  0.22063941  0.78071307  1
  C  C628  1  0.86050395  0.22581126  0.77646944  1
  O  O629  1  0.85351067  0.12150134  0.95787501  1
  C  C630  1  0.75518596  0.09729429  0.76644132  1
  C  C631  1  0.94886760  0.18368897  0.50716666  1
  C  C632  1  0.92068807  0.01081708  0.72131184  1
  H  H633  1  0.85959381  0.01094902  0.65368433  1
  C  C634  1  0.84437408  0.12944522  0.54556455  1
  C  C635  1  0.94755535  0.23262836  0.51225965  1
  H  H636  1  0.91977417  0.24857760  0.50497920  1
  H  H637  1  0.75351011  0.27724327  0.95887898  1
  C  C638  1  0.91411258  0.32427604  0.96411738  1
  O  O639  1  0.94046099  0.33252426  0.86389171  1
  C  C640  1  0.94252200  0.49022540  0.58752277  1
  O  O641  1  0.76093700  0.44287047  0.62967653  1
  C  C642  1  0.94380517  0.38967044  0.50761786  1
  H  H643  1  0.81627908  0.45149114  0.99735829  1
  H  H644  1  0.76845290  0.36094248  0.86010112  1
  C  C645  1  0.82464251  0.43933038  0.52957598  1
  C  C646  1  0.83808768  0.40685182  0.64065598  1
  H  H647  1  0.90843589  0.27144187  0.72064547  1
  C  C648  1  0.88581789  0.26306563  0.80806063  1
  C  C649  1  0.90112717  0.40804410  0.50138539  1
  C  C650  1  0.98241482  0.26249964  0.51233862  1
  C  C651  1  0.78461624  0.45830623  0.53195877  1
  C  C652  1  0.97765555  0.41797663  0.53208540  1
  O  O653  1  0.96451574  0.44061018  0.88796632  1
  H  H654  1  0.89073858  0.37285494  0.73171333  1
  C  C655  1  0.88332006  0.29009042  0.94048863  1
  H  H656  1  0.81974260  0.39218367  0.73002254  1
  Cu  Cu657  1  0.97654112  0.37757435  0.83912290  1
  C  C658  1  0.97790439  0.31560770  0.50458769  1
  H  H659  1  0.91867122  0.47084820  0.64864828  1
  C  C660  1  0.76745999  0.35418690  0.98701505  1
  O  O661  1  0.98243282  0.46306463  0.56624625  1
  C  C662  1  0.87755856  0.39421533  0.63089282  1
  C  C663  1  0.84221553  0.62479603  0.26265695  1
  C  C664  1  0.87477162  0.65418434  0.26041082  1
  C  C665  1  0.84348436  0.57894477  0.34525250  1
  O  O666  1  0.81437560  0.54925194  0.31648120  1
  C  C667  1  0.87523882  0.69597320  0.17353523  1
  H  H668  1  0.90094083  0.64552848  0.32402215  1
  O  O669  1  0.86910800  0.57017091  0.43601650  1
  C  C670  1  0.78671674  0.70923075  0.42642561  1
  H  H671  1  0.90117469  0.71564038  0.17121376  1
  Cu  Cu672  1  0.77116994  0.55083089  0.42021730  1
  C  C673  1  0.80861184  0.63648374  0.17223091  1
  H  H674  1  0.79787982  0.73445811  0.33570129  1
  C  C675  1  0.84092561  0.70925486  0.08705780  1
  H  H676  1  0.78612719  0.60747450  0.16209052  1
  C  C677  1  0.96746131  0.57816968  0.07777263  1
  H  H678  1  0.98548125  0.55258433  0.14178408  1
  C  C679  1  0.80789813  0.67728553  0.08339332  1
  H  H680  1  0.86012514  0.53513454  0.01513951  1
  C  C681  1  0.92912139  0.57050052  0.03220937  1
  H  H682  1  0.91533730  0.53564407  0.05758661  1
  C  C683  1  0.98266502  0.62512213  0.04060020  1
  O  O684  1  0.90694398  0.77438508  0.01941818  1
  O  O685  1  0.76015732  0.98796945  0.00246087  1
  C  C686  1  0.97892366  0.99789586  0.21474853  1
  C  C687  1  0.93169549  0.77681175  0.39929326  1
  Cu  Cu688  1  0.76276905  0.82639212  0.22819107  1
  H  H689  1  0.97783091  0.90722856  0.17029157  1
  H  H690  1  0.93753274  0.84214981  0.03924826  1
  C  C691  1  0.86380349  0.79262059  0.47451672  1
  H  H692  1  0.91808717  0.97775853  0.32264176  1
  H  H693  1  0.83915670  0.89439633  0.47830962  1
  C  C694  1  0.91809466  0.88746260  0.26655415  1
  H  H695  1  0.98721631  0.75607687  0.02070125  1
  C  C696  1  0.94990100  0.92120546  0.22063858  1
  C  C697  1  0.94434950  0.96817621  0.25317492  1
  C  C698  1  0.82526144  0.80963894  0.43656317  1
  C  C699  1  0.83104643  0.96665571  0.39490748  1
  C  C700  1  0.85213916  0.92238138  0.40382369  1
  C  C701  1  0.76378046  0.99541064  0.46288146  1
  H  H702  1  0.92144178  0.85083888  0.24109697  1
  H  H703  1  0.87983122  0.78779890  0.24305688  1
  C  C704  1  0.88592167  0.90801123  0.33838901  1
  C  C705  1  0.89278727  0.78686638  0.36148101  1
  H  H706  1  0.91212706  0.97792105  0.02909110  1
  H  H707  1  0.95225114  0.77423734  0.30745617  1
  O  O708  1  0.78912610  0.96605354  0.49151587  1
  H  H709  1  0.87562039  0.90719410  0.09802579  1
  O  O710  1  0.81498221  0.81574693  0.29590986  1
  H  H711  1  0.98640621  0.83432170  0.42912666  1
  H  H712  1  0.96331515  0.92255321  0.44703230  1
  C  C713  1  0.83776973  0.75498818  0.00129764  1
  H  H714  1  0.98482540  0.94918151  0.01407124  1
  C  C715  1  0.81076933  0.62431976  0.75087755  1
  C  C716  1  0.85364984  0.63240039  0.76910486  1
  O  O717  1  0.87179142  0.66133359  0.70110328  1
  C  C718  1  0.78842084  0.58815705  0.81382167  1
  C  C719  1  0.78835043  0.65446644  0.64386442  1
  C  C720  1  0.86833055  0.59835580  0.88962959  1
  C  C721  1  0.80537390  0.55459334  0.91439633  1
  C  C722  1  0.97942419  0.70181022  0.61885746  1
  C  C723  1  0.90830313  0.60505037  0.94387326  1
  H  H724  1  0.90515906  0.68012498  0.86870124  1
  C  C725  1  0.92355038  0.65344205  0.92536729  1
  C  C726  1  0.94160827  0.54250930  0.63634211  1
  H  H727  1  0.75750944  0.58157608  0.77874237  1
  H  H728  1  0.94116393  0.54241184  0.76269988  1
  C  C729  1  0.84563648  0.56055422  0.94632179  1
  H  H730  1  0.95126742  0.68377255  0.59930547  1
  C  C731  1  0.77901366  0.51636694  0.97677845  1
  H  H732  1  0.91598243  0.56142177  0.58910925  1
  H  H733  1  0.97763592  0.69780114  0.94906045  1
  C  C734  1  0.96197240  0.66391008  0.97412404  1
  H  H735  1  0.78410383  0.68227572  0.99674161  1
  H  H736  1  0.77609566  0.73624044  0.98473561  1
  H  H737  1  0.96771986  0.56442562  0.60351085  1
  H  H738  1  0.83853411  0.69251809  0.54800829  1
  C  C739  1  0.80768032  0.68549382  0.54043825  1
  C  C740  1  0.78944660  0.99625463  0.93219435  1
  C  C741  1  0.94160679  0.80883315  0.97651620  1
  H  H742  1  0.91634579  0.76433037  0.78548582  1
  Cu  Cu743  1  0.75735211  0.84650892  0.50784769  1
  C  C744  1  0.79834758  0.76401261  0.97062452  1
  C  C745  1  0.98122474  0.75275254  0.61229066  1
  C  C746  1  0.98485774  0.79358414  0.99560760  1
  C  C747  1  0.94121418  0.76829992  0.55419015  1
  C  C748  1  0.88446155  0.88412247  0.71337476  1
  C  C749  1  0.98700888  0.85601483  0.54423729  1
  C  C750  1  0.98873853  0.90998899  0.52940100  1
  H  H751  1  0.95965304  0.91069372  0.86169283  1
  C  C752  1  0.90132258  0.92748755  0.66971222  1
  C  C753  1  0.90251299  0.95483574  0.93659126  1
  C  C754  1  0.87221452  0.78222867  0.62734018  1
  H  H755  1  0.75588127  0.89050621  0.81633093  1
  O  O756  1  0.80179097  0.81600840  0.54700911  1
  H  H757  1  0.98162739  0.92765082  0.63838547  1
  H  H758  1  0.88026624  0.85589650  0.62209735  1
  C  C759  1  0.85465439  0.82970330  0.92277635  1
  H  H760  1  0.84996089  0.78801499  0.71441665  1
  H  H761  1  0.90899568  0.93721065  0.54989913  1
  C  C762  1  0.98573005  0.91948238  0.92741809  1
  C  C763  1  0.87024635  0.78836413  0.98388240  1
  C  C764  1  0.88493744  0.91259329  0.97771132  1
  C  C765  1  0.81530170  0.84173258  0.88810724  1
  C  C766  1  0.78591236  0.80806284  0.91224633  1
  C  C767  1  0.90605208  0.96394161  0.77422143  1
  C  C768  1  0.90998899  0.76893673  0.66277274  1
  H  H769  1  0.93304442  0.81900784  0.85599051  1
  C  C770  1  0.87476361  0.87605358  0.86793792  1
  H  H771  1  0.80975613  0.87406168  0.82572394  1
  H  H772  1  0.96225598  0.84535972  0.61727442  1
  H  H773  1  0.81265136  0.96605431  0.96321689  1
