# generated using pymatgen
data_CuH15C22O5
_symmetry_space_group_name_H-M   'P 1'
_cell_length_a   24.30595659
_cell_length_b   28.34946935
_cell_length_c   13.50744179
_cell_angle_alpha   90.00000000
_cell_angle_beta   90.00000000
_cell_angle_gamma   90.00000000
_symmetry_Int_Tables_number   1
_chemical_formula_structural   CuH15C22O5
_chemical_formula_sum   'Cu18 H270 C396 O90'
_cell_volume   9307.45096142
_cell_formula_units_Z   18
loop_
 _symmetry_equiv_pos_site_id
 _symmetry_equiv_pos_as_xyz
  1  'x, y, z'
loop_
 _atom_site_type_symbol
 _atom_site_label
 _atom_site_symmetry_multiplicity
 _atom_site_fract_x
 _atom_site_fract_y
 _atom_site_fract_z
 _atom_site_occupancy
  C  C0  1  0.11117421  0.09870312  0.24712242  1
  C  C1  1  0.12559614  0.14666452  0.26086092  1
  H  H2  1  0.09214667  0.16804582  0.29062962  1
  C  C3  1  0.17838087  0.16690664  0.25119374  1
  C  C4  1  0.17749087  0.21944790  0.26568726  1
  C  C5  1  0.05260543  0.07770305  0.26616382  1
  C  C6  1  0.15545859  0.07188352  0.20945046  1
  C  C7  1  0.17430796  0.23031704  0.36797569  1
  H  H8  1  0.17241416  0.20231530  0.42451268  1
  C  C9  1  0.20713207  0.09179392  0.20827047  1
  H  H10  1  0.15104775  0.03523614  0.19068581  1
  C  C11  1  0.22542965  0.13870949  0.22454720  1
  H  H12  1  0.05665686  0.12727918  0.07550817  1
  C  C13  1  0.05442110  0.02931301  0.28443345  1
  H  H14  1  0.16790367  0.01052537  0.42133824  1
  H  H15  1  0.14759148  0.09520914  0.46189591  1
  H  H16  1  0.17334343  0.24462757  0.11625801  1
  C  C17  1  0.01332274  0.12185807  0.05235940  1
  O  O18  1  0.01665772  0.21376474  0.15158249  1
  C  C19  1  0.06091009  0.11199089  0.47615447  1
  C  C20  1  0.10687981  0.08700904  0.49323838  1
  C  C21  1  0.24157436  0.01189738  0.22677562  1
  C  C22  1  0.00451894  0.00593273  0.30231471  1
  H  H23  1  0.09364592  0.01039170  0.28654439  1
  C  C24  1  0.00656428  0.11177608  0.49827671  1
  C  C25  1  0.00140069  0.10207311  0.26291558  1
  H  H26  1  0.21137123  0.01024603  0.28849087  1
  C  C27  1  0.08906505  0.04672962  0.55215447  1
  C  C28  1  0.13590754  0.01238953  0.57089600  1
  H  H29  1  0.06547688  0.12951131  0.64682094  1
  C  C30  1  0.00643349  0.18515497  0.66987757  1
  O  O31  1  0.12117880  0.09204138  0.76177550  1
  O  O32  1  0.22763256  0.15000847  0.53117033  1
  C  C33  1  0.06222368  0.15520655  0.80461153  1
  C  C34  1  0.24900039  0.22324843  0.59883756  1
  O  O35  1  0.21561961  0.15488992  0.69291512  1
  C  C36  1  0.03793178  0.18868494  0.86776975  1
  Cu  Cu37  1  0.18703483  0.09193557  0.70511031  1
  H  H38  1  0.11260346  0.00859064  0.72540615  1
  O  O39  1  0.22113430  0.03992083  0.76904918  1
  C  C40  1  0.04662375  0.15439547  0.70207346  1
  C  C41  1  0.10589359  0.12224082  0.82687391  1
  H  H42  1  0.23685119  0.23796288  0.75277262  1
  H  H43  1  0.05353336  0.19125155  0.94385410  1
  C  C44  1  0.22979417  0.17280137  0.60410117  1
  O  O45  1  0.13016776  0.12661346  0.91004315  1
  Cu  Cu46  1  0.19787305  0.10316931  0.89741680  1
  C  C47  1  0.03596356  0.03724899  0.58484407  1
  C  C48  1  0.17049543  0.36239017  0.35807391  1
  C  C49  1  0.17170205  0.31187034  0.32289506  1
  O  O50  1  0.17342523  0.39748991  0.29474895  1
  O  O51  1  0.16821599  0.36945722  0.44558766  1
  C  C52  1  0.17639509  0.30327268  0.22014915  1
  H  H53  1  0.15541564  0.47648471  0.09857902  1
  C  C54  1  0.16829142  0.27658565  0.39533180  1
  H  H55  1  0.17735611  0.33245291  0.16310268  1
  H  H56  1  0.14340751  0.47291844  0.34327325  1
  H  H57  1  0.04114471  0.48353494  0.30519335  1
  O  O58  1  0.24233867  0.41548756  0.14160459  1
  H  H59  1  0.03088702  0.29405695  0.15245209  1
  O  O60  1  0.24425438  0.49187251  0.33380912  1
  Cu  Cu61  1  0.23421676  0.43421401  0.26952928  1
  O  O62  1  0.24446049  0.27394119  0.02890497  1
  C  C63  1  0.18763417  0.49767951  0.06069012  1
  H  H64  1  0.16278730  0.28559758  0.47604658  1
  H  H65  1  0.05197914  0.30649520  0.33024131  1
  C  C66  1  0.04572373  0.27042002  0.30287508  1
  C  C67  1  0.01708122  0.26734605  0.20419968  1
  C  C68  1  0.17525599  0.25684756  0.19334675  1
  H  H69  1  0.08875874  0.25543985  0.30571571  1
  C  C70  1  0.24185734  0.48232935  0.03867555  1
  H  H71  1  0.02426836  0.25014397  0.36226583  1
  H  H72  1  0.02857651  0.38282377  0.99826706  1
  H  H73  1  0.01879979  0.29573619  0.99491788  1
  C  C74  1  0.10522274  0.37674699  0.85578846  1
  C  C75  1  0.01885984  0.42627633  0.80633943  1
  H  H76  1  0.01374573  0.35269442  0.77130691  1
  C  C77  1  0.04278262  0.43795873  0.55973879  1
  H  H78  1  0.18223150  0.34228057  0.87270810  1
  C  C79  1  0.16131967  0.37629919  0.86168654  1
  H  H80  1  0.08081608  0.34339301  0.86338633  1
  H  H81  1  0.06053205  0.41470945  0.61332668  1
  H  H82  1  0.14865847  0.43296834  0.51495328  1
  C  C83  1  0.21542742  0.47761285  0.56437310  1
  C  C84  1  0.07837535  0.42104337  0.83703496  1
  C  C85  1  0.15868104  0.46828396  0.55034986  1
  C  C86  1  0.11255753  0.45994318  0.82068436  1
  C  C87  1  0.19596481  0.41561449  0.83585200  1
  C  C88  1  0.16977900  0.45817407  0.81443474  1
  H  H89  1  0.22006753  0.38242808  0.60529651  1
  C  C90  1  0.06500697  0.48405372  0.53744628  1
  H  H91  1  0.09226825  0.49281596  0.80484226  1
  H  H92  1  0.19743928  0.48882590  0.79218876  1
  C  C93  1  0.24902950  0.26870474  0.95186300  1
  C  C94  1  0.09777837  0.58969605  0.20956985  1
  C  C95  1  0.15254771  0.57847954  0.21915093  1
  H  H96  1  0.18340038  0.60404907  0.19649167  1
  H  H97  1  0.08590861  0.62471576  0.18414963  1
  H  H98  1  0.06401652  0.68410501  0.07028022  1
  C  C99  1  0.05667479  0.55557139  0.23866231  1
  O  O100  1  0.03926107  0.63167352  0.36523908  1
  C  C101  1  0.03686490  0.67356248  0.43359685  1
  H  H102  1  0.06179662  0.54847914  0.44321716  1
  C  C103  1  0.16809855  0.53545201  0.26805723  1
  C  C104  1  0.03963477  0.51629470  0.47065813  1
  H  H105  1  0.13193001  0.55776634  0.05159088  1
  C  C106  1  0.12368099  0.73924991  0.05214274  1
  H  H107  1  0.04899884  0.70401143  0.38692751  1
  H  H108  1  0.16643022  0.74654089  0.19413910  1
  C  C109  1  0.07309093  0.51127300  0.28320561  1
  C  C110  1  0.17144440  0.54337733  0.02799545  1
  C  C111  1  0.05319763  0.65681913  0.01351525  1
  C  C112  1  0.16249449  0.70102573  0.01545132  1
  O  O113  1  0.10563367  0.62697894  0.00407563  1
  H  H114  1  0.24028379  0.60632022  0.49084268  1
  C  C115  1  0.15123743  0.65123918  0.00019411  1
  C  C116  1  0.22952624  0.52908953  0.28648712  1
  C  C117  1  0.20972556  0.72792962  0.00120456  1
  C  C118  1  0.12890033  0.50418363  0.30222175  1
  H  H119  1  0.11702056  0.68527290  0.50015765  1
  C  C120  1  0.07395518  0.67936136  0.52489985  1
  O  O121  1  0.09193912  0.58083492  0.64251130  1
  C  C122  1  0.19715877  0.62698611  0.73738038  1
  H  H123  1  0.00056535  0.64338444  0.68758699  1
  O  O124  1  0.00976585  0.50904784  0.82680410  1
  C  C125  1  0.18429334  0.55559413  0.61572012  1
  C  C126  1  0.12018690  0.50111458  0.57787339  1
  H  H127  1  0.05877832  0.70878677  0.57264531  1
  H  H128  1  0.05468842  0.67324019  0.93869884  1
  C  C129  1  0.12564835  0.54780014  0.61752256  1
  H  H130  1  0.17875849  0.60833744  0.80093961  1
  C  C131  1  0.03099882  0.57115731  0.65248134  1
  C  C132  1  0.20043179  0.62696373  0.97932409  1
  C  C133  1  0.22326873  0.67099571  0.75313860  1
  H  H134  1  0.07171366  0.74389165  0.91955766  1
  C  C135  1  0.23312990  0.62510873  0.56238722  1
  C  C136  1  0.20322936  0.60457167  0.64222204  1
  C  C137  1  0.20901942  0.57484096  0.97600166  1
  H  H138  1  0.22533972  0.68977515  0.82579026  1
  H  H139  1  0.03431713  0.53458752  0.68327235  1
  C  C140  1  0.22646045  0.52438703  0.59582683  1
  H  H141  1  0.07301323  0.64554835  0.56920997  1
  H  H142  1  0.01503669  0.56439220  0.57804909  1
  O  O143  1  0.16291292  0.87018569  0.33537262  1
  C  C144  1  0.10709650  0.84353029  0.39183973  1
  C  C145  1  0.05122006  0.84187782  0.34027938  1
  C  C146  1  0.07052227  0.86774510  0.42700736  1
  C  C147  1  0.20728176  0.85151430  0.33978083  1
  H  H148  1  0.10436568  0.80347930  0.26117029  1
  O  O149  1  0.13293954  0.79508504  0.45610491  1
  C  C150  1  0.09706937  0.79268375  0.18359530  1
  C  C151  1  0.22035787  0.80954008  0.38971981  1
  C  C152  1  0.05558231  0.81225763  0.12100481  1
  C  C153  1  0.18185187  0.78564885  0.44433985  1
  C  C154  1  0.05800652  0.95455125  0.42233254  1
  H  H155  1  0.24221924  0.86836969  0.29463873  1
  H  H156  1  0.02651273  0.80968312  0.35423806  1
  C  C157  1  0.07881087  0.91614745  0.46693408  1
  H  H158  1  0.06897651  0.98981460  0.45887485  1
  C  C159  1  0.04768830  0.79550123  0.02102696  1
  O  O160  1  0.02505215  0.87443055  0.24432316  1
  H  H161  1  0.22801875  0.94011373  0.46434556  1
  C  C162  1  0.01434672  0.92117562  0.25848360  1
  C  C163  1  0.01767053  0.85248373  0.13446459  1
  C  C164  1  0.02543513  0.95558277  0.32939834  1
  C  C165  1  0.17166855  0.99551900  0.49584388  1
  C  C166  1  0.13259194  0.75947614  0.14841719  1
  H  H167  1  0.20991919  0.76685425  0.00549222  1
  H  H168  1  0.19703908  0.75449866  0.48790124  1
  C  C169  1  0.13801866  0.99274286  0.66781650  1
  H  H170  1  0.01644088  0.81312933  0.97699950  1
  C  C171  1  0.21104302  0.94012700  0.61980860  1
  H  H172  1  0.17585447  0.94204292  0.76735958  1
  C  C173  1  0.20439904  0.95814388  0.52067519  1
  C  C174  1  0.17598356  0.95817387  0.69234069  1
  H  H175  1  0.10493790  0.92542554  0.53087461  1
  O  O176  1  0.24431134  0.88385643  0.73577023  1
  C  C177  1  0.24243557  0.89875346  0.64685145  1
  O  O178  1  0.02693559  0.99682481  0.64154802  1
  C  C179  1  0.08027961  0.75852915  0.98959223  1
  C  C180  1  0.32756666  0.02470444  0.08251736  1
  H  H181  1  0.29881557  0.09761481  0.07630999  1
  C  C182  1  0.29384230  0.06268453  0.11039352  1
  H  H183  1  0.36411889  0.02980866  0.02979901  1
  H  H184  1  0.39123579  0.19428788  0.23836132  1
  H  H185  1  0.26473539  0.22009128  0.43742245  1
  C  C186  1  0.30000294  0.20483090  0.23559443  1
  C  C187  1  0.35913402  0.22306178  0.23606109  1
  H  H188  1  0.36810826  0.24317082  0.16568958  1
  H  H189  1  0.34471633  0.16361149  0.42051091  1
  O  O190  1  0.27769884  0.14952619  0.21801074  1
  H  H191  1  0.27768825  0.20810776  0.30924340  1
  O  O192  1  0.44150334  0.11125118  0.46963971  1
  C  C193  1  0.46769465  0.07004204  0.48581425  1
  H  H194  1  0.27329397  0.22028472  0.17562932  1
  C  C195  1  0.35883698  0.16588220  0.49832426  1
  C  C196  1  0.25142655  0.05625172  0.18072093  1
  H  H197  1  0.36870467  0.24668053  0.29602117  1
  C  C198  1  0.26592151  0.24043296  0.50563846  1
  C  C199  1  0.46448417  0.17545824  0.70387848  1
  C  C200  1  0.31078046  0.01378784  0.66546590  1
  H  H201  1  0.44821360  0.08430932  0.70557516  1
  H  H202  1  0.39872088  0.11921930  0.60617954  1
  H  H203  1  0.38609300  0.19745007  0.50696418  1
  C  C204  1  0.26659739  0.05262766  0.80744826  1
  O  O205  1  0.41694395  0.17943726  0.69509789  1
  O  O206  1  0.26407388  0.07780713  0.88353949  1
  H  H207  1  0.36374346  0.08871443  0.50676328  1
  C  C208  1  0.35273790  0.00778760  0.59676959  1
  C  C209  1  0.44857360  0.03219383  0.54597233  1
  C  C210  1  0.40139250  0.03672189  0.61619453  1
  C  C211  1  0.40889867  0.06527152  0.70107896  1
  H  H212  1  0.32414521  0.16816992  0.55038376  1
  C  C213  1  0.36417583  0.07155232  0.76406267  1
  C  C214  1  0.39107412  0.12010611  0.52272699  1
  H  H215  1  0.36067622  0.09711683  0.82199599  1
  C  C216  1  0.31651844  0.04518194  0.74738532  1
  O  O217  1  0.48722240  0.01954963  0.80942908  1
  H  H218  1  0.44506838  0.23818103  0.61041276  1
  C  C219  1  0.41273859  0.47083775  0.37470620  1
  H  H220  1  0.38259634  0.45788943  0.32107235  1
  C  C221  1  0.40957259  0.45828887  0.47569127  1
  O  O222  1  0.31628395  0.42983778  0.05262321  1
  H  H223  1  0.45477882  0.45465238  0.06172385  1
  H  H224  1  0.28892822  0.30467743  0.42799917  1
  C  C225  1  0.28069896  0.28800891  0.49943745  1
  C  C226  1  0.26663037  0.43974376  0.07815811  1
  H  H227  1  0.47420705  0.26548132  0.49692838  1
  C  C228  1  0.45983729  0.48893577  0.02302688  1
  C  C229  1  0.45806962  0.49693108  0.34995101  1
  H  H230  1  0.45135205  0.45536447  0.61362357  1
  H  H231  1  0.37564167  0.28295896  0.50304533  1
  Cu  Cu232  1  0.34135096  0.46911143  0.72424805  1
  C  C233  1  0.36051100  0.37936118  0.53012003  1
  C  C234  1  0.26057942  0.39643911  0.57688055  1
  C  C235  1  0.27275186  0.29820618  0.68469642  1
  C  C236  1  0.30575849  0.36610568  0.56546569  1
  C  C237  1  0.25643109  0.42070072  0.82705118  1
  C  C238  1  0.35928272  0.42883613  0.51102087  1
  C  C239  1  0.31503036  0.46167352  0.51139212  1
  C  C240  1  0.45517157  0.46932526  0.53804898  1
  O  O241  1  0.27895006  0.45867555  0.79669578  1
  C  C242  1  0.28898028  0.31487151  0.58798328  1
  O  O243  1  0.28559583  0.38560946  0.85698207  1
  Cu  Cu244  1  0.33719796  0.38845446  0.95440968  1
  O  O245  1  0.40604621  0.41453723  0.94168928  1
  H  H246  1  0.38057702  0.30794873  0.62662939  1
  H  H247  1  0.27383942  0.31893477  0.75445419  1
  O  O248  1  0.40216305  0.35103545  0.51620561  1
  C  C249  1  0.41576386  0.45016440  0.88619711  1
  C  C250  1  0.26439632  0.44505566  0.54758237  1
  O  O251  1  0.40272292  0.44568668  0.79330690  1
  C  C252  1  0.45506235  0.27218525  0.57242666  1
  C  C253  1  0.40217191  0.30164070  0.55676656  1
  C  C254  1  0.44032125  0.49168834  0.92304603  1
  H  H255  1  0.48295593  0.29146882  0.62004154  1
  C  C256  1  0.25222437  0.25201400  0.68477397  1
  H  H257  1  0.46615737  0.61808915  0.12034727  1
  C  C258  1  0.47767140  0.66676366  0.30960970  1
  H  H259  1  0.46427034  0.63038955  0.28741805  1
  C  C260  1  0.46410762  0.68722229  0.39943243  1
  H  H261  1  0.46258468  0.58884948  0.39791633  1
  C  C262  1  0.43905386  0.60510045  0.46055068  1
  C  C263  1  0.43488238  0.65555693  0.47367511  1
  C  C264  1  0.47963493  0.73402571  0.42967800  1
  O  O265  1  0.26167106  0.55709062  0.25239512  1
  C  C266  1  0.49007732  0.52750876  0.05449873  1
  H  H267  1  0.46713970  0.51258236  0.27632262  1
  H  H268  1  0.31726843  0.50158337  0.49637343  1
  C  C269  1  0.47258940  0.57317622  0.89412544  1
  C  C270  1  0.28066463  0.73600779  0.69488652  1
  H  H271  1  0.28221989  0.68923674  0.52572786  1
  C  C272  1  0.48653398  0.69101496  0.70939823  1
  C  C273  1  0.41133719  0.73182769  0.94400915  1
  C  C274  1  0.38419491  0.59804807  0.60868110  1
  H  H275  1  0.43206579  0.53317077  0.78313954  1
  C  C276  1  0.49836424  0.56762910  0.98893102  1
  O  O277  1  0.47390562  0.74938754  0.52046616  1
  C  C278  1  0.25043371  0.65108936  0.96659968  1
  C  C279  1  0.25995256  0.55496062  0.94424247  1
  H  H280  1  0.28766200  0.62770745  0.95518991  1
  H  H281  1  0.48057681  0.68325110  0.63127497  1
  C  C282  1  0.31469244  0.71952201  0.98583120  1
  H  H283  1  0.34889938  0.66036746  0.67873542  1
  H  H284  1  0.40772985  0.53904696  0.51430132  1
  C  C285  1  0.37557954  0.64683009  0.61709032  1
  C  C286  1  0.25747246  0.69979446  0.98153966  1
  C  C287  1  0.40913596  0.57640139  0.52429868  1
  C  C288  1  0.44660409  0.53226918  0.85920156  1
  C  C289  1  0.45417754  0.71505533  0.87104840  1
  O  O290  1  0.35997389  0.52044244  0.65330575  1
  C  C291  1  0.36032761  0.71068203  0.92416535  1
  H  H292  1  0.28637913  0.57643468  0.89557092  1
  C  C293  1  0.35789902  0.56524204  0.67819588  1
  C  C294  1  0.25574146  0.67030228  0.57941047  1
  C  C295  1  0.27578310  0.51064102  0.97745683  1
  C  C296  1  0.25050282  0.69165750  0.67167003  1
  C  C297  1  0.40101302  0.67541331  0.54850432  1
  H  H298  1  0.39129656  0.71467016  0.54563021  1
  H  H299  1  0.40544030  0.72065427  0.72554297  1
  H  H300  1  0.35328080  0.68652469  0.86247801  1
  H  H301  1  0.26849650  0.53623548  0.59359653  1
  O  O302  1  0.33578831  0.57720393  0.75320107  1
  H  H303  1  0.47889202  0.60571843  0.84952976  1
  C  C304  1  0.44361920  0.70816413  0.76650701  1
  H  H305  1  0.31775280  0.50019781  0.96544260  1
  O  O306  1  0.31036961  0.82239404  0.30122740  1
  C  C307  1  0.33642456  0.80000560  0.23508912  1
  O  O308  1  0.34959462  0.89819925  0.15828830  1
  C  C309  1  0.35988859  0.81520042  0.14533573  1
  C  C310  1  0.36387020  0.86158119  0.11228193  1
  C  C311  1  0.35514450  0.94526618  0.09753619  1
  H  H312  1  0.46878763  0.79437685  0.18258024  1
  H  H313  1  0.47303315  0.86652243  0.38044247  1
  C  C314  1  0.37428158  0.77549445  0.07469978  1
  C  C315  1  0.48093848  0.81786018  0.12110458  1
  O  O316  1  0.38883996  0.94877547  0.03708784  1
  H  H317  1  0.37656387  0.89116681  0.31784134  1
  H  H318  1  0.44992677  0.84509782  0.11107558  1
  C  C319  1  0.27388892  0.97398765  0.20072268  1
  C  C320  1  0.39876325  0.89776357  0.39017239  1
  H  H321  1  0.28493932  0.77445291  0.08224989  1
  H  H322  1  0.37963839  0.86908286  0.03436933  1
  C  C323  1  0.31617650  0.98095438  0.12871697  1
  H  H324  1  0.26677921  0.93798915  0.23358833  1
  C  C325  1  0.32259751  0.75834515  0.05343038  1
  C  C326  1  0.27820803  0.79352284  0.38000690  1
  O  O327  1  0.47475577  0.77887753  0.03697447  1
  H  H328  1  0.33854311  0.76157601  0.25290144  1
  C  C329  1  0.42479617  0.76200725  0.02142392  1
  O  O330  1  0.29425947  0.75694389  0.40772989  1
  C  C331  1  0.40161938  0.89556264  0.48973108  1
  H  H332  1  0.34927529  0.98493866  0.52864750  1
  C  C333  1  0.46523707  0.91737412  0.81364951  1
  C  C334  1  0.40583603  0.89125896  0.58205311  1
  H  H335  1  0.47527796  0.82419978  0.51866657  1
  H  H336  1  0.46454547  0.95723284  0.59974355  1
  C  C337  1  0.46611555  0.86967028  0.84178685  1
  Cu  Cu338  1  0.26256420  0.82406625  0.76501526  1
  C  C339  1  0.49678564  0.79541010  0.55814410  1
  H  H340  1  0.40647207  0.88790076  0.66325677  1
  H  H341  1  0.32963465  0.93698887  0.78915226  1
  C  C342  1  0.41386795  0.94071206  0.79920304  1
  C  C343  1  0.36696569  0.91722269  0.81378764  1
  H  H344  1  0.41123018  0.97872472  0.77108591  1
  C  C345  1  0.41643989  0.84845099  0.85383382  1
  O  O346  1  0.31982701  0.84289817  0.86144083  1
  H  H347  1  0.41781982  0.81284114  0.87466001  1
  C  C348  1  0.36215309  0.86729287  0.84115555  1
  Cu  Cu349  1  0.29214579  0.81449057  0.59695081  1
  H  H350  1  0.45827961  0.81324172  0.69975490  1
  O  O351  1  0.27184905  0.75907006  0.77301675  1
  O  O352  1  0.27038194  0.87911400  0.57788185  1
  O  O353  1  0.30984217  0.75426696  0.62893514  1
  C  C354  1  0.47821090  0.98735187  0.55309910  1
  H  H355  1  0.27307111  0.98968735  0.66340839  1
  H  H356  1  0.61816828  0.13015843  0.16823225  1
  C  C357  1  0.59487254  0.13420032  0.23859047  1
  C  C358  1  0.57905876  0.09590732  0.29575974  1
  H  H359  1  0.59585801  0.06099611  0.27934712  1
  C  C360  1  0.54415505  0.10202854  0.37986838  1
  C  C361  1  0.57858545  0.18058051  0.26542767  1
  C  C362  1  0.54805367  0.18936119  0.35381754  1
  C  C363  1  0.53180159  0.15098536  0.41043962  1
  O  O364  1  0.72136276  0.16667846  0.16234289  1
  H  H365  1  0.59234429  0.01372930  0.40234907  1
  O  O366  1  0.71632449  0.16762432  0.32674971  1
  H  H367  1  0.74281284  0.09232970  0.11017443  1
  C  C368  1  0.74340247  0.05973282  0.06086333  1
  Cu  Cu369  1  0.69552663  0.22035460  0.10138902  1
  O  O370  1  0.62264196  0.21095441  0.12554764  1
  C  C371  1  0.59254226  0.21985767  0.20300804  1
  C  C372  1  0.55203388  0.02018137  0.43757399  1
  Cu  Cu373  1  0.68214247  0.21686158  0.38528228  1
  C  C374  1  0.74300085  0.16363436  0.24538293  1
  C  C375  1  0.52095620  0.06367669  0.44002011  1
  H  H376  1  0.65837466  0.08915190  0.02254005  1
  C  C377  1  0.74688755  0.01488018  0.10072332  1
  H  H378  1  0.53822534  0.22593667  0.37156726  1
  H  H379  1  0.74767686  0.00882459  0.17918304  1
  H  H380  1  0.56460018  0.05526001  0.01629308  1
  H  H381  1  0.51275047  0.16118805  0.47989111  1
  C  C382  1  0.70501478  0.22612890  0.79563767  1
  C  C383  1  0.61846677  0.23753703  0.70741385  1
  C  C384  1  0.57054636  0.01060242  0.73048883  1
  O  O385  1  0.51295688  0.17202019  0.70370852  1
  H  H386  1  0.55424587  0.11533396  0.99436659  1
  H  H387  1  0.65949023  0.06694008  0.89441386  1
  H  H388  1  0.55743053  0.07561119  0.88284283  1
  O  O389  1  0.72444134  0.07940880  0.60246820  1
  C  C390  1  0.71011439  0.14917624  0.89634511  1
  H  H391  1  0.53504785  0.08314697  0.72466909  1
  H  H392  1  0.62369336  0.20399478  0.84964136  1
  C  C393  1  0.66393238  0.09483439  0.63965792  1
  C  C394  1  0.63777089  0.08986628  0.94908898  1
  O  O395  1  0.65858375  0.13954773  0.89870947  1
  C  C396  1  0.57135025  0.06007962  0.71053162  1
  C  C397  1  0.57443037  0.08411794  0.95893233  1
  C  C398  1  0.73470804  0.24840609  0.71670578  1
  C  C399  1  0.64515108  0.22504241  0.79518475  1
  H  H400  1  0.67647469  0.13654769  0.63529623  1
  C  C401  1  0.62046069  0.07861750  0.67352203  1
  C  C402  1  0.73685823  0.19160825  0.85615826  1
  C  C403  1  0.74324415  0.06663463  0.95588610  1
  C  C404  1  0.74420236  0.02677934  0.88882930  1
  H  H405  1  0.74444211  0.03439186  0.80665673  1
  H  H406  1  0.57304793  0.23420933  0.70230626  1
  H  H407  1  0.64613155  0.00038421  0.64523678  1
  Cu  Cu408  1  0.63441581  0.28892831  0.31708690  1
  O  O409  1  0.69454196  0.47533376  0.11455559  1
  O  O410  1  0.66006060  0.27195209  0.44538992  1
  O  O411  1  0.69364761  0.30843495  0.23574708  1
  C  C412  1  0.64254284  0.46337707  0.39277313  1
  H  H413  1  0.59741968  0.45942238  0.38833552  1
  C  C414  1  0.67305514  0.47905339  0.31282462  1
  C  C415  1  0.73180111  0.47953728  0.31809217  1
  H  H416  1  0.65409418  0.48826701  0.24493009  1
  C  C417  1  0.67147575  0.44869274  0.47789986  1
  C  C418  1  0.74150801  0.49822802  0.13329833  1
  O  O419  1  0.58091034  0.26138416  0.23353464  1
  H  H420  1  0.62205889  0.40652959  0.01160234  1
  H  H421  1  0.72614905  0.33926301  0.38167371  1
  C  C422  1  0.73708881  0.28532832  0.22868391  1
  C  C423  1  0.72933004  0.44901423  0.48806272  1
  H  H424  1  0.58743992  0.45714493  0.01926044  1
  C  C425  1  0.67382748  0.47518220  0.00698944  1
  O  O426  1  0.74455198  0.25897611  0.15520815  1
  C  C427  1  0.50080881  0.49425105  0.50872270  1
  H  H428  1  0.63187739  0.33684490  0.83397253  1
  H  H429  1  0.69019871  0.37430740  0.85843638  1
  H  H430  1  0.72796610  0.26772304  0.56197864  1
  C  C431  1  0.66550653  0.35613120  0.79649435  1
  O  O432  1  0.58843819  0.42932169  0.56029641  1
  C  C433  1  0.70578657  0.25798625  0.63035731  1
  C  C434  1  0.63956096  0.38917028  0.71307034  1
  H  H435  1  0.61074832  0.36282412  0.67096120  1
  C  C436  1  0.63595551  0.42964691  0.55571815  1
  H  H437  1  0.61510348  0.44097387  0.90155036  1
  H  H438  1  0.69343290  0.32894998  0.75958206  1
  O  O439  1  0.57502524  0.27207314  0.52220081  1
  H  H440  1  0.71501924  0.46354878  0.97767726  1
  O  O441  1  0.66944207  0.40722424  0.63674829  1
  C  C442  1  0.62310804  0.26832653  0.52663634  1
  C  C443  1  0.62321277  0.44323428  0.98022163  1
  C  C444  1  0.64859396  0.25574156  0.62476804  1
  H  H445  1  0.61011886  0.41406311  0.74841078  1
  H  H446  1  0.59324481  0.48571097  0.78235939  1
  C  C447  1  0.61317451  0.65655523  0.04783390  1
  C  C448  1  0.63966123  0.57210971  0.16344460  1
  C  C449  1  0.59846535  0.58270387  0.24850456  1
  O  O450  1  0.54910198  0.55314685  0.27792771  1
  H  H451  1  0.65527403  0.60459531  0.12816699  1
  H  H452  1  0.58483211  0.61884712  0.23180329  1
  H  H453  1  0.62429932  0.58387573  0.31613197  1
  C  C454  1  0.58581344  0.68503081  0.11992997  1
  H  H455  1  0.61185808  0.71415802  0.14618433  1
  C  C456  1  0.54571545  0.54269659  0.37452847  1
  C  C457  1  0.69851748  0.69627914  0.11353300  1
  H  H458  1  0.67892458  0.69554582  0.18735145  1
  O  O459  1  0.61152667  0.64963679  0.41454313  1
  O  O460  1  0.69718353  0.63002122  0.39370462  1
  O  O461  1  0.58126177  0.55883007  0.43220265  1
  C  C462  1  0.66280098  0.65924614  0.41717934  1
  H  H463  1  0.67526961  0.55098115  0.19252158  1
  C  C464  1  0.67602477  0.70631164  0.46138325  1
  H  H465  1  0.62047974  0.55153678  0.10531037  1
  C  C466  1  0.53369613  0.67093590  0.15427404  1
  C  C467  1  0.66936120  0.67620028  0.03261439  1
  C  C468  1  0.73158778  0.71923559  0.47702305  1
  C  C469  1  0.51620580  0.74351085  0.26073507  1
  C  C470  1  0.74875342  0.71824474  0.09501615  1
  C  C471  1  0.53508736  0.60714071  0.03143000  1
  C  C472  1  0.50839657  0.69522451  0.24287602  1
  Cu  Cu473  1  0.72336651  0.57894566  0.47558636  1
  C  C474  1  0.59146240  0.61378178  0.00181701  1
  H  H475  1  0.59079300  0.72546202  0.48633524  1
  C  C476  1  0.63216503  0.73580910  0.49380786  1
  H  H477  1  0.50688453  0.53081995  0.12853242  1
  C  C478  1  0.50768351  0.63217167  0.10646347  1
  C  C479  1  0.50309211  0.51197640  0.40924687  1
  O  O480  1  0.62123783  0.58992101  0.94007067  1
  O  O481  1  0.73122491  0.53547263  0.57750801  1
  H  H482  1  0.51296837  0.71024119  0.99590096  1
  C  C483  1  0.73005519  0.56492909  0.92674158  1
  H  H484  1  0.57065453  0.52843364  0.94427700  1
  Cu  Cu485  1  0.57351878  0.61455640  0.51101425  1
  O  O486  1  0.63020442  0.66483253  0.71244309  1
  C  C487  1  0.58170159  0.67086183  0.68399408  1
  C  C488  1  0.61836665  0.51669681  0.80663361  1
  O  O489  1  0.56815548  0.66354964  0.59454921  1
  C  C490  1  0.73570141  0.54387565  0.75563976  1
  H  H491  1  0.68447128  0.60182786  0.81463088  1
  C  C492  1  0.53878272  0.68320153  0.75425726  1
  C  C493  1  0.50782761  0.70788655  0.91546531  1
  H  H494  1  0.66886437  0.65675163  0.87516668  1
  C  C495  1  0.74553554  0.69113724  0.92398869  1
  H  H496  1  0.71083856  0.58902985  0.98471047  1
  C  C497  1  0.55133554  0.69405541  0.85507945  1
  C  C498  1  0.71549515  0.57435597  0.83140459  1
  O  O499  1  0.68339686  0.59106031  0.65431345  1
  C  C500  1  0.71621429  0.55556344  0.65767036  1
  C  C501  1  0.58889022  0.54949168  0.88259956  1
  Cu  Cu502  1  0.70287861  0.65528750  0.66219361  1
  H  H503  1  0.59354631  0.69337330  0.88446947  1
  H  H504  1  0.62332619  0.53634083  0.73198880  1
  C  C505  1  0.69269669  0.67380025  0.93473104  1
  H  H506  1  0.55613422  0.56754203  0.83789245  1
  H  H507  1  0.66945304  0.51001074  0.97315078  1
  H  H508  1  0.65754592  0.50535945  0.83801151  1
  H  H509  1  0.53262739  0.50130472  0.56054400  1
  O  O510  1  0.70629440  0.91551790  0.36667335  1
  C  C511  1  0.65796141  0.92244858  0.42321572  1
  C  C512  1  0.61402766  0.88498970  0.39816290  1
  C  C513  1  0.63169429  0.84014977  0.37299406  1
  H  H514  1  0.67457010  0.83203941  0.37643662  1
  C  C515  1  0.59463583  0.80352820  0.35514391  1
  C  C516  1  0.53714468  0.80832401  0.36507885  1
  C  C517  1  0.68444046  0.82871942  0.07896925  1
  C  C518  1  0.55709005  0.89345649  0.39671607  1
  O  O519  1  0.67609186  0.82985883  0.17350410  1
  Cu  Cu520  1  0.69901130  0.88238008  0.24691336  1
  H  H521  1  0.54371418  0.93075309  0.40847152  1
  C  C522  1  0.53815939  0.84105578  0.13327337  1
  H  H523  1  0.57162026  0.81475718  0.12342620  1
  C  C524  1  0.51808737  0.85658196  0.38070710  1
  C  C525  1  0.65078097  0.86108905  0.02514887  1
  H  H526  1  0.54196836  0.85943644  0.20672330  1
  H  H527  1  0.53021929  0.76568651  0.19844228  1
  C  C528  1  0.64330554  0.90770610  0.01374877  1
  C  C529  1  0.50490950  0.76282657  0.35677482  1
  H  H530  1  0.61035348  0.76877613  0.33751006  1
  H  H531  1  0.67441957  0.93779653  0.01018405  1
  O  O532  1  0.72631730  0.81036887  0.03873119  1
  O  O533  1  0.65382232  0.95612876  0.47247475  1
  H  H534  1  0.54532973  0.86957983  0.07586412  1
  C  C535  1  0.52364672  0.99098755  0.49905660  1
  H  H536  1  0.51147799  0.77071083  0.70876264  1
  C  C537  1  0.73949052  0.76295830  0.51901634  1
  C  C538  1  0.62552190  0.87615165  0.94104545  1
  C  C539  1  0.52084657  0.99183202  0.78088873  1
  H  H540  1  0.74803584  0.77946856  0.86084690  1
  H  H541  1  0.72695834  0.77257506  0.72435803  1
  H  H542  1  0.65224754  0.77147191  0.91490211  1
  C  C543  1  0.69853544  0.79264587  0.55890870  1
  H  H544  1  0.71164175  0.95961125  0.75581110  1
  H  H545  1  0.50446872  0.85078896  0.84273616  1
  H  H546  1  0.64456107  0.87502929  0.86378262  1
  C  C547  1  0.65892720  0.90475865  0.68803885  1
  C  C548  1  0.64248929  0.77717859  0.54150327  1
  C  C549  1  0.71517258  0.77505161  0.80326859  1
  H  H550  1  0.56594366  0.87443076  0.77353371  1
  C  C551  1  0.61464112  0.98332508  0.69391733  1
  H  H552  1  0.60700015  0.79513767  0.56696554  1
  C  C553  1  0.50044704  0.80272721  0.67097912  1
  C  C554  1  0.70969178  0.92489248  0.71551476  1
  H  H555  1  0.53934081  0.79528648  0.53234603  1
  C  C556  1  0.51773972  0.93893776  0.78665826  1
  C  C557  1  0.65945651  0.86148165  0.63176773  1
  H  H558  1  0.62171983  0.84651307  0.60215836  1
  C  C559  1  0.70692996  0.83667469  0.61838609  1
  C  C560  1  0.61158223  0.93521234  0.71668616  1
  C  C561  1  0.56307998  0.91123837  0.75984110  1
  C  C562  1  0.66331742  0.77169971  0.83199637  1
  H  H563  1  0.62908388  0.76553479  0.77670074  1
  H  H564  1  0.53202055  0.82741131  0.69489642  1
  C  C565  1  0.87389444  0.12364624  0.36278942  1
  C  C566  1  0.90121306  0.10656687  0.27493052  1
  C  C567  1  0.88047239  0.11452451  0.17626021  1
  C  C568  1  0.80110605  0.14985806  0.25282739  1
  C  C569  1  0.83108674  0.13866180  0.16892587  1
  H  H570  1  0.81695833  0.14636987  0.09007580  1
  C  C571  1  0.82320501  0.14276667  0.35077073  1
  H  H572  1  0.90751726  0.10544054  0.11204154  1
  H  H573  1  0.89453263  0.11931105  0.43773440  1
  C  C574  1  0.95321903  0.07507377  0.27663915  1
  H  H575  1  0.85309111  0.04857534  0.37963571  1
  H  H576  1  0.79629931  0.15495312  0.41259008  1
  C  C577  1  0.97604882  0.16258509  0.03132046  1
  C  C578  1  0.97997782  0.20661525  0.08291834  1
  C  C579  1  0.84639363  0.02290773  0.32208461  1
  C  C580  1  0.94044738  0.23903600  0.04473149  1
  H  H581  1  0.84090726  0.04393511  0.25448903  1
  C  C582  1  0.97092983  0.03396650  0.04082204  1
  C  C583  1  0.99009840  0.07824217  0.04267023  1
  C  C584  1  0.95090111  0.02569050  0.30271622  1
  H  H585  1  0.99909276  0.14157527  0.25614466  1
  H  H586  1  0.88060531  0.22317929  0.41241654  1
  H  H587  1  0.97447311  0.13900614  0.47473955  1
  H  H588  1  0.90994795  0.02136058  0.46892210  1
  H  H589  1  0.81354465  0.21878836  0.26515646  1
  H  H590  1  0.76031599  0.01843574  0.35633170  1
  C  C591  1  0.81246684  0.24647768  0.32407972  1
  C  C592  1  0.84852974  0.24838194  0.40599111  1
  O  O593  1  0.90660500  0.00081393  0.31684669  1
  H  H594  1  0.98764682  0.00424754  0.09364787  1
  O  O595  1  0.91680754  0.05663867  0.87331603  1
  H  H596  1  0.80774817  0.03305152  0.51485103  1
  C  C597  1  0.97711022  0.21433341  0.73454329  1
  O  O598  1  0.76441779  0.13322296  0.69805110  1
  C  C599  1  0.89264823  0.23034697  0.98642185  1
  C  C600  1  0.99541689  0.07125394  0.56203637  1
  C  C601  1  0.75322424  0.11669728  0.92232737  1
  O  O602  1  0.90361327  0.20218321  0.55858843  1
  C  C603  1  0.90898248  0.01784507  0.90151217  1
  C  C604  1  0.88672486  0.18306859  0.95319010  1
  H  H605  1  0.99369062  0.18579904  0.59470361  1
  C  C606  1  0.93110666  0.15114257  0.96844854  1
  H  H607  1  0.83518190  0.09549968  0.96957719  1
  C  C608  1  0.82932506  0.16873318  0.91843136  1
  C  C609  1  0.89509383  0.04523790  0.52906856  1
  H  H610  1  0.93012540  0.11506263  0.93169432  1
  C  C611  1  0.92108547  0.10316790  0.66642108  1
  H  H612  1  0.85202771  0.03973031  0.74190080  1
  C  C613  1  0.84015860  0.05304695  0.55377320  1
  H  H614  1  0.95523568  0.01465191  0.69357767  1
  H  H615  1  0.88011587  0.18522512  0.60831386  1
  C  C616  1  0.81065732  0.12298806  0.93637575  1
  C  C617  1  0.79302316  0.20102063  0.87875105  1
  H  H618  1  0.85447203  0.13950280  0.73455408  1
  H  H619  1  0.95467489  0.12274703  0.70835352  1
  H  H620  1  0.81291134  0.23478958  0.85952807  1
  C  C621  1  0.93500622  0.07007911  0.58999336  1
  C  C622  1  0.86642999  0.11137581  0.67879002  1
  C  C623  1  0.76787699  0.10042121  0.64141038  1
  C  C624  1  0.82635580  0.08779754  0.62018245  1
  C  C625  1  0.99557711  0.21662680  0.83508199  1
  C  C626  1  0.90700664  0.24600142  0.60713670  1
  H  H627  1  0.97275666  0.23864895  0.88777447  1
  C  C628  1  0.84861622  0.00362089  0.76338130  1
  O  O629  1  0.93782902  0.00323979  0.99545173  1
  C  C630  1  0.90383964  0.36472878  0.11501905  1
  Cu  Cu631  1  0.88670654  0.47968592  0.24619311  1
  O  O632  1  0.90175876  0.46283254  0.11995244  1
  C  C633  1  0.94075216  0.29178307  0.06792166  1
  C  C634  1  0.77394180  0.28310152  0.31587799  1
  O  O635  1  0.88566242  0.48718267  0.37117068  1
  C  C636  1  0.89751143  0.31627941  0.11881556  1
  H  H637  1  0.80686653  0.47014958  0.41112118  1
  C  C638  1  0.90686869  0.45362650  0.42927586  1
  C  C639  1  0.76076674  0.46522353  0.40716058  1
  H  H640  1  0.87246448  0.38850794  0.14542722  1
  H  H641  1  0.86030501  0.29941766  0.14686157  1
  C  C642  1  0.94971937  0.39114131  0.08185944  1
  C  C643  1  0.94839959  0.44370300  0.09073340  1
  C  C644  1  0.96385668  0.46234608  0.46335500  1
  C  C645  1  0.76272860  0.31516740  0.39471234  1
  O  O646  1  0.98737086  0.46868668  0.08676477  1
  O  O647  1  0.88118183  0.42218665  0.46321200  1
  C  C648  1  0.79730663  0.31732412  0.47675969  1
  C  C649  1  0.98630898  0.31790664  0.03138963  1
  C  C650  1  0.99327284  0.36596325  0.03251851  1
  H  H651  1  0.96890658  0.26766596  0.20429835  1
  C  C652  1  0.84218078  0.28337085  0.47945666  1
  H  H653  1  0.96921517  0.29636844  0.80836656  1
  H  H654  1  0.86713901  0.25878574  0.96120080  1
  H  H655  1  0.81739007  0.47036495  0.88894124  1
  C  C656  1  0.99285430  0.38610266  0.77357412  1
  C  C657  1  0.88783442  0.33158021  0.61365123  1
  C  C658  1  0.94707844  0.29701015  0.73932371  1
  H  H659  1  0.86430727  0.42749185  0.69883736  1
  C  C660  1  0.93852927  0.38608747  0.73781616  1
  C  C661  1  0.92137754  0.33735235  0.69850675  1
  C  C662  1  0.99182631  0.42817792  0.52198653  1
  H  H663  1  0.97335791  0.39424676  0.53982337  1
  C  C664  1  0.87926129  0.28725054  0.57203794  1
  C  C665  1  0.90724187  0.42820754  0.72524722  1
  C  C666  1  0.94215600  0.25316477  0.68954986  1
  H  H667  1  0.87225438  0.36104119  0.57269339  1
  C  C668  1  0.93498213  0.46833032  0.75651386  1
  H  H669  1  0.78791626  0.48362316  0.71525958  1
  H  H670  1  0.79198527  0.34623751  0.53164115  1
  C  C671  1  0.99183142  0.47220505  0.79784865  1
  H  H672  1  0.75390576  0.43509181  0.54794093  1
  H  H673  1  0.91867860  0.48703808  0.56983288  1
  C  C674  1  0.78926556  0.49930751  0.87397202  1
  H  H675  1  0.77941833  0.25177730  0.71425992  1
  C  C676  1  0.89613172  0.61668185  0.27556677  1
  C  C677  1  0.89957112  0.57516536  0.21919491  1
  C  C678  1  0.84308262  0.55057397  0.18938329  1
  H  H679  1  0.85641692  0.63793945  0.28057741  1
  C  C680  1  0.94256544  0.63675922  0.32085490  1
  C  C681  1  0.95265079  0.55669441  0.20835351  1
  C  C682  1  0.82686046  0.54687905  0.09052868  1
  C  C683  1  0.93028888  0.68693074  0.35497718  1
  H  H684  1  0.81756694  0.53819801  0.33695270  1
  C  C685  1  0.89427588  0.69926302  0.43353023  1
  C  C686  1  0.95090918  0.72362698  0.28724180  1
  C  C687  1  0.80371337  0.53472793  0.26098965  1
  H  H688  1  0.98232877  0.71741741  0.22987868  1
  C  C689  1  0.87546826  0.74728224  0.44273778  1
  H  H690  1  0.76242999  0.69655222  0.44211260  1
  H  H691  1  0.96893731  0.53225830  0.38089679  1
  H  H692  1  0.95637353  0.52551568  0.15844379  1
  C  C693  1  0.77756959  0.52300832  0.06542130  1
  C  C694  1  0.99468488  0.61452605  0.32139243  1
  H  H695  1  0.99212495  0.67451544  0.45754608  1
  C  C696  1  0.99818048  0.57420186  0.25896317  1
  C  C697  1  0.77208767  0.71683936  0.00036177  1
  H  H698  1  0.77176140  0.73734432  0.15563396  1
  C  C699  1  0.98768687  0.50666903  0.43410566  1
  H  H700  1  0.85081076  0.56413729  0.03441647  1
  H  H701  1  0.96612952  0.67007289  0.04124878  1
  C  C702  1  0.75791323  0.50475444  0.23342968  1
  H  H703  1  0.87725539  0.67267140  0.48210520  1
  O  O704  1  0.79271886  0.60377394  0.49344354  1
  H  H705  1  0.98213120  0.61006909  0.00921074  1
  C  C706  1  0.99609991  0.64016980  0.04927283  1
  H  H707  1  0.86914344  0.55507123  0.49132691  1
  H  H708  1  0.99742203  0.62768925  0.13126576  1
  C  C709  1  0.82391898  0.74330823  0.98977690  1
  H  H710  1  0.94678182  0.60021039  0.69899805  1
  O  O711  1  0.84680643  0.73866194  0.91321231  1
  H  H712  1  0.99671614  0.60460722  0.78934845  1
  H  H713  1  0.76827886  0.69035391  0.85427380  1
  H  H714  1  0.83653329  0.61460348  0.77938196  1
  C  C715  1  0.99196140  0.60655363  0.70670092  1
  C  C716  1  0.80477176  0.61477550  0.58099063  1
  C  C717  1  0.90125429  0.51449003  0.61591363  1
  C  C718  1  0.90038381  0.50990254  0.72294229  1
  C  C719  1  0.88279139  0.54849966  0.77945543  1
  C  C720  1  0.87552947  0.55315792  0.57262724  1
  C  C721  1  0.85678778  0.58708011  0.73591869  1
  C  C722  1  0.77284228  0.50606519  0.77548639  1
  O  O723  1  0.78109871  0.64967125  0.61960056  1
  H  H724  1  0.88873859  0.54827871  0.86217258  1
  C  C725  1  0.84771025  0.58757999  0.63388841  1
  C  C726  1  0.76812067  0.52730625  0.95281500  1
  Cu  Cu727  1  0.81284120  0.88469190  0.21685407  1
  C  C728  1  0.85979454  0.82149298  0.35351777  1
  O  O729  1  0.87046972  0.84506122  0.27371383  1
  O  O730  1  0.82369112  0.83416808  0.41350672  1
  C  C731  1  0.77078649  0.93194152  0.07133674  1
  O  O732  1  0.83639510  0.77655444  0.05711078  1
  Cu  Cu733  1  0.80101114  0.83463403  0.04089473  1
  O  O734  1  0.98727139  0.86886008  0.07897011  1
  Cu  Cu735  1  0.76425559  0.87670937  0.39457981  1
  C  C736  1  0.88826820  0.77634911  0.36223155  1
  H  H737  1  0.93663822  0.79284317  0.22702233  1
  H  H738  1  0.78357637  0.96796445  0.28496974  1
  H  H739  1  0.79802608  0.97670623  0.41550008  1
  O  O740  1  0.78082853  0.89754940  0.01472198  1
  O  O741  1  0.76734602  0.92538065  0.16310574  1
  C  C742  1  0.75875798  0.97925098  0.03037434  1
  H  H743  1  0.98923850  0.93432496  0.19690609  1
  C  C744  1  0.79384966  0.99416495  0.34303398  1
  C  C745  1  0.92530168  0.76715885  0.28134865  1
  C  C746  1  0.91411088  0.82766104  0.61009529  1
  H  H747  1  0.88834895  0.92662410  0.94743957  1
  H  H748  1  0.97267089  0.93496979  0.79587781  1
  H  H749  1  0.90586227  0.94751209  0.73973647  1
  O  O750  1  0.80532876  0.82878141  0.63099734  1
  C  C751  1  0.81639008  0.97279893  0.70760440  1
  C  C752  1  0.86811649  0.93725507  0.88191357  1
  C  C753  1  0.75422441  0.98250074  0.92900328  1
  C  C754  1  0.82985850  0.91085079  0.83224735  1
  H  H755  1  0.93198123  0.85332512  0.55733322  1
  C  C756  1  0.87477842  0.98591808  0.84904019  1
  H  H757  1  0.82261345  0.87547056  0.86753199  1
  H  H758  1  0.90334315  0.79711376  0.56083673  1
  H  H759  1  0.95724827  0.97895777  0.57754481  1
  H  H760  1  0.78070532  0.77334304  0.51963692  1
  C  C761  1  0.97066941  0.98266409  0.65567448  1
  H  H762  1  0.95599431  0.90856319  0.68514749  1
  H  H763  1  0.85930240  0.84598617  0.74503175  1
  C  C764  1  0.76220084  0.85227795  0.65012129  1
  H  H765  1  0.79117038  0.98838918  0.64696276  1
  C  C766  1  0.86237707  0.84811255  0.66218895  1
  H  H767  1  0.94673595  0.81643618  0.66207064  1
  C  C768  1  0.94984719  0.94129281  0.72327386  1
  H  H769  1  0.76525433  0.95321572  0.87434175  1
  C  C770  1  0.80415500  0.92606606  0.74081023  1
  H  H771  1  0.86160115  0.88676841  0.64862749  1
  C  C772  1  0.75638106  0.89751900  0.69682015  1
  H  H773  1  0.85144636  0.75989544  0.50284276  1
