# generated using pymatgen
data_CuH15C22O5
_symmetry_space_group_name_H-M   'P 1'
_cell_length_a   35.37956769
_cell_length_b   28.03078729
_cell_length_c   8.91963938
_cell_angle_alpha   90.00000000
_cell_angle_beta   90.00000000
_cell_angle_gamma   90.00000000
_symmetry_Int_Tables_number   1
_chemical_formula_structural   CuH15C22O5
_chemical_formula_sum   'Cu18 H270 C396 O90'
_cell_volume   8845.75922083
_cell_formula_units_Z   18
loop_
 _symmetry_equiv_pos_site_id
 _symmetry_equiv_pos_as_xyz
  1  'x, y, z'
loop_
 _atom_site_type_symbol
 _atom_site_label
 _atom_site_symmetry_multiplicity
 _atom_site_fract_x
 _atom_site_fract_y
 _atom_site_fract_z
 _atom_site_occupancy
  C  C0  1  0.07274888  0.18450303  0.68694747  1
  C  C1  1  0.24643962  0.06178956  0.08497988  1
  H  H2  1  0.11241197  0.12388387  0.75510995  1
  H  H3  1  0.12728000  0.20981147  0.80938685  1
  C  C4  1  0.22811007  0.13076265  0.79535315  1
  C  C5  1  0.03639711  0.14278505  0.19479689  1
  H  H6  1  0.12526233  0.08507216  0.54509143  1
  C  C7  1  0.11692860  0.12213755  0.51668747  1
  C  C8  1  0.19397170  0.13525333  0.68636697  1
  O  O9  1  0.20381268  0.09346457  0.31359213  1
  O  O10  1  0.23291108  0.16987870  0.89486523  1
  H  H11  1  0.20042538  0.15459678  0.57852430  1
  H  H12  1  0.05596621  0.18101258  0.79243549  1
  H  H13  1  0.22463344  0.09836417  0.86559820  1
  C  C14  1  0.11685007  0.20048986  0.69140315  1
  O  O15  1  0.18338244  0.24158379  0.72596618  1
  H  H16  1  0.05713769  0.17060098  0.15181659  1
  C  C17  1  0.10615742  0.14611330  0.66158680  1
  C  C18  1  0.11520144  0.15221513  0.22385065  1
  H  H19  1  0.16912539  0.15222418  0.73983882  1
  H  H20  1  0.03851058  0.14224203  0.32154491  1
  C  C21  1  0.11627680  0.13672937  0.37479433  1
  C  C22  1  0.05007239  0.20205147  0.55765655  1
  C  C23  1  0.20397319  0.05275569  0.27364963  1
  C  C24  1  0.20638185  0.23975035  0.08230771  1
  C  C25  1  0.00795711  0.20579486  0.58241302  1
  H  H26  1  0.24933073  0.09771320  0.13236578  1
  Cu  Cu27  1  0.23407807  0.24492786  0.73440186  1
  C  C28  1  0.06911862  0.22344463  0.43904218  1
  H  H29  1  0.18533560  0.09849363  0.64959570  1
  C  C30  1  0.12950302  0.23078992  0.56727463  1
  O  O31  1  0.11375902  0.16506428  0.10099167  1
  H  H32  1  0.19624478  0.20416534  0.06397473  1
  H  H33  1  0.04186790  0.10642848  0.14672529  1
  C  C34  1  0.22384886  0.02839858  0.15120303  1
  C  C35  1  0.10818955  0.23624694  0.44323309  1
  O  O36  1  0.04502916  0.00202896  0.86163138  1
  H  H37  1  0.18432014  0.03297008  0.35433139  1
  H  H38  1  0.05140160  0.23525847  0.34459095  1
  C  C39  1  0.24109795  0.47148766  0.61483993  1
  H  H40  1  0.06373251  0.46153231  0.76175085  1
  H  H41  1  0.11101947  0.39631978  0.92915482  1
  H  H42  1  0.05138061  0.35169131  0.88419131  1
  O  O43  1  0.04317522  0.40711309  0.56927065  1
  C  C44  1  0.05080569  0.38935727  0.92457400  1
  C  C45  1  0.05392169  0.43882284  0.47834797  1
  H  H46  1  0.21386312  0.48610850  0.64157468  1
  C  C47  1  0.06672247  0.48557258  0.52459087  1
  C  C48  1  0.08323245  0.41407714  0.95973729  1
  C  C49  1  0.01246009  0.45625020  0.02194170  1
  O  O50  1  0.05272978  0.33607752  0.22093982  1
  H  H51  1  0.23751418  0.36638242  0.21800615  1
  O  O52  1  0.14387698  0.46470093  0.03623722  1
  C  C53  1  0.16232668  0.35596744  0.18702384  1
  C  C54  1  0.07991188  0.45894868  0.03066776  1
  Cu  Cu55  1  0.09051231  0.38569823  0.24843609  1
  H  H56  1  0.01761836  0.33415712  0.78319682  1
  O  O57  1  0.05724422  0.42960615  0.33467909  1
  C  C58  1  0.24372409  0.42311952  0.58493536  1
  H  H59  1  0.14754668  0.26710480  0.08164951  1
  C  C60  1  0.01516529  0.40967459  0.95680731  1
  O  O61  1  0.12766657  0.34853938  0.16859700  1
  C  C62  1  0.02718257  0.31906796  0.30572724  1
  H  H63  1  0.21760767  0.40128703  0.58805122  1
  C  C64  1  0.22955303  0.33120350  0.17200217  1
  C  C65  1  0.04423742  0.47970117  0.06539646  1
  C  C66  1  0.11381636  0.48724269  0.06381452  1
  O  O67  1  0.18184324  0.27435402  0.49748009  1
  O  O68  1  0.02378034  0.32834116  0.44632430  1
  O  O69  1  0.17412163  0.39304881  0.25226179  1
  C  C70  1  0.19036562  0.31861228  0.15256323  1
  Cu  Cu71  1  0.18516251  0.45284072  0.15762289  1
  Cu  Cu72  1  0.23526184  0.26528748  0.43972930  1
  C  C73  1  0.17793660  0.27301036  0.10800180  1
  H  H74  1  0.02221742  0.28704024  0.02336205  1
  H  H75  1  0.02667000  0.27255408  0.67873939  1
  O  O76  1  0.21991873  0.49763211  0.21099671  1
  C  C77  1  0.07069358  0.49100703  0.68395542  1
  O  O78  1  0.24497262  0.32889123  0.48436542  1
  H  H79  1  0.11992266  0.26123298  0.36137514  1
  C  C80  1  0.16621606  0.25030156  0.60295954  1
  C  C81  1  0.24570271  0.25122915  0.09479667  1
  C  C82  1  0.00221117  0.25004183  0.65152582  1
  C  C83  1  0.23124308  0.56653815  0.66631094  1
  C  C84  1  0.17506343  0.67739714  0.77100298  1
  H  H85  1  0.07223285  0.71839592  0.96236380  1
  O  O86  1  0.07062155  0.66744653  0.78155242  1
  H  H87  1  0.09929637  0.59002442  0.40388194  1
  C  C88  1  0.08541201  0.53204141  0.73761727  1
  C  C89  1  0.14285514  0.64249503  0.24087781  1
  C  C90  1  0.13018417  0.73356674  0.85634840  1
  C  C91  1  0.22321019  0.61686491  0.66505956  1
  C  C92  1  0.23662917  0.72569475  0.07228846  1
  H  H93  1  0.13547500  0.74353911  0.57617895  1
  C  C94  1  0.10515948  0.65421449  0.76089906  1
  H  H95  1  0.16296405  0.56820068  0.60266270  1
  C  C96  1  0.11752270  0.61188611  0.68924555  1
  H  H97  1  0.04405601  0.63084869  0.61846919  1
  H  H98  1  0.19566342  0.70280801  0.80755665  1
  O  O99  1  0.11132591  0.65623824  0.24146708  1
  C  C100  1  0.17618190  0.67111615  0.19501041  1
  C  C101  1  0.07391561  0.52065820  0.41619124  1
  C  C102  1  0.15597882  0.59958329  0.66715047  1
  H  H103  1  0.03875122  0.73041456  0.39442395  1
  C  C104  1  0.21339005  0.65336951  0.21302495  1
  C  C105  1  0.09395285  0.56918522  0.63399289  1
  O  O106  1  0.15095471  0.59642142  0.27672622  1
  C  C107  1  0.13696569  0.68625149  0.79358302  1
  H  H108  1  0.04414385  0.65261691  0.28568296  1
  C  C109  1  0.19925515  0.74536091  0.07121876  1
  O  O110  1  0.11439172  0.52873061  0.11818435  1
  H  H111  1  0.20911360  0.54266397  0.69973325  1
  C  C112  1  0.23030735  0.53407048  0.13685809  1
  H  H113  1  0.09123953  0.53922529  0.86186748  1
  C  C114  1  0.08924288  0.56100923  0.48147436  1
  H  H115  1  0.04833684  0.59888010  0.79858609  1
  C  C116  1  0.18341199  0.63310163  0.70094093  1
  C  C117  1  0.16990504  0.71765962  0.13136642  1
  C  C118  1  0.03903753  0.63308662  0.74539184  1
  H  H119  1  0.21896304  0.61985301  0.27437642  1
  H  H120  1  0.13952231  0.72920748  0.13277450  1
  Cu  Cu121  1  0.15784806  0.56393450  0.10912149  1
  O  O122  1  0.20620384  0.55541727  0.05595099  1
  O  O123  1  0.01960139  0.56759880  0.23118410  1
  H  H124  1  0.04272884  0.51411450  0.12635137  1
  C  C125  1  0.24191822  0.68060359  0.15353471  1
  H  H126  1  0.06738809  0.51756485  0.30043990  1
  C  C127  1  0.15674536  0.72852212  0.49353635  1
  H  H128  1  0.14846732  0.69411936  0.45534577  1
  C  C129  1  0.01339675  0.70765030  0.39636621  1
  C  C130  1  0.01655838  0.66220882  0.33518054  1
  H  H131  1  0.24672012  0.68741886  0.67464273  1
  C  C132  1  0.09554593  0.74470855  0.94033023  1
  H  H133  1  0.20522435  0.73728614  0.35373547  1
  O  O134  1  0.01493946  0.84286556  0.99453657  1
  O  O135  1  0.00686277  0.94343335  0.90533740  1
  O  O136  1  0.19556636  0.95364438  0.19774282  1
  Cu  Cu137  1  0.18267472  0.89086842  0.18451569  1
  C  C138  1  0.09423102  0.79065240  0.99070242  1
  O  O139  1  0.08549254  0.87584170  0.09727315  1
  O  O140  1  0.14605899  0.89823486  0.04457320  1
  C  C141  1  0.11761893  0.87004423  0.03993010  1
  O  O142  1  0.23681245  0.95836961  0.01631397  1
  C  C143  1  0.15428509  0.81330572  0.87405359  1
  C  C144  1  0.12273353  0.82482608  0.96546616  1
  H  H145  1  0.06862827  0.80531807  0.05785764  1
  O  O146  1  0.23253206  0.83010880  0.96559153  1
  C  C147  1  0.01363169  0.83378860  0.61466554  1
  O  O148  1  0.22379806  0.88868974  0.50031206  1
  C  C149  1  0.23246156  0.86306379  0.39736588  1
  H  H150  1  0.19441435  0.78206458  0.02611759  1
  H  H151  1  0.17729169  0.83830613  0.85969750  1
  O  O152  1  0.20595398  0.84740223  0.30764358  1
  C  C153  1  0.15787711  0.76876038  0.81888629  1
  Cu  Cu154  1  0.04110772  0.90096517  0.99706745  1
  H  H155  1  0.24011712  0.86250675  0.74044993  1
  C  C156  1  0.21762732  0.97878116  0.12045873  1
  Cu  Cu157  1  0.23711857  0.89208561  0.99758056  1
  C  C158  1  0.01478567  0.78628708  0.58230474  1
  H  H159  1  0.18144585  0.76081785  0.73357287  1
  H  H160  1  0.04062878  0.76454500  0.59709839  1
  C  C161  1  0.01490983  0.98488003  0.85963011  1
  H  H162  1  0.19334350  0.78670483  0.49200393  1
  O  O163  1  0.00381191  0.82533674  0.22692795  1
  H  H164  1  0.24149432  0.94723047  0.64174783  1
  C  C165  1  0.18700545  0.75185681  0.44249134  1
  C  C166  1  0.44288572  0.16233458  0.18880223  1
  H  H167  1  0.35333677  0.12335382  0.02687072  1
  C  C168  1  0.46179981  0.11704420  0.13416485  1
  C  C169  1  0.38491150  0.17236394  0.75399401  1
  C  C170  1  0.32894805  0.14701139  0.04476372  1
  H  H171  1  0.39766327  0.12943002  0.07463494  1
  C  C172  1  0.27316655  0.21183648  0.07626252  1
  C  C173  1  0.30652566  0.21823318  0.15900488  1
  C  C174  1  0.46034138  0.19590519  0.28902449  1
  C  C175  1  0.40710725  0.16325584  0.12783798  1
  C  C176  1  0.26457136  0.17248450  0.97585365  1
  O  O177  1  0.26320054  0.02923711  0.63890081  1
  C  C178  1  0.48212734  0.24250038  0.82079945  1
  C  C179  1  0.48475771  0.09653991  0.24809789  1
  H  H180  1  0.40030259  0.17023846  0.86395359  1
  H  H181  1  0.30119148  0.09840523  0.54295204  1
  C  C182  1  0.39752741  0.14586157  0.62253779  1
  C  C183  1  0.37569814  0.14482978  0.48667036  1
  C  C184  1  0.43128528  0.11348695  0.61247435  1
  O  O185  1  0.32667304  0.04483231  0.70945715  1
  C  C186  1  0.34055385  0.16574349  0.47372133  1
  C  C187  1  0.41417217  0.07029328  0.54532514  1
  H  H188  1  0.34595361  0.10407491  0.76602443  1
  C  C189  1  0.32122214  0.08003966  0.79614621  1
  C  C190  1  0.35076130  0.19640452  0.74192596  1
  H  H191  1  0.47693499  0.03882452  0.84435683  1
  C  C192  1  0.47906222  0.03215396  0.56172678  1
  C  C193  1  0.33061224  0.19145121  0.60279542  1
  C  C194  1  0.29436045  0.21666107  0.59042551  1
  H  H195  1  0.38814237  0.12461848  0.39543731  1
  O  O196  1  0.48690523  0.15734915  0.71378839  1
  H  H197  1  0.25674148  0.12599016  0.74466582  1
  C  C198  1  0.47768872  0.05436049  0.96064840  1
  C  C199  1  0.39561063  0.23318210  0.25726309  1
  H  H200  1  0.33890956  0.21991962  0.83234044  1
  O  O201  1  0.49301239  0.18750656  0.35507461  1
  C  C202  1  0.29382998  0.08927459  0.90857987  1
  H  H203  1  0.32304792  0.16722903  0.36832422  1
  H  H204  1  0.44762888  0.20269665  0.64211362  1
  C  C205  1  0.37879419  0.19675637  0.16967706  1
  C  C206  1  0.46932996  0.11760464  0.65558197  1
  C  C207  1  0.29393921  0.13860637  0.98366958  1
  C  C208  1  0.33887294  0.19012627  0.12239482  1
  H  H209  1  0.27224530  0.01651864  0.91647471  1
  H  H210  1  0.43708709  0.11096676  0.90497478  1
  C  C211  1  0.45637149  0.09538625  0.99009184  1
  H  H212  1  0.38378914  0.06275660  0.54061816  1
  H  H213  1  0.44237654  0.17930732  0.82071473  1
  C  C214  1  0.44255674  0.03802890  0.54092883  1
  C  C215  1  0.26973810  0.05337530  0.95995494  1
  C  C216  1  0.46411232  0.19776547  0.74716610  1
  H  H217  1  0.31612439  0.07182913  0.21087476  1
  C  C218  1  0.43391986  0.23449382  0.30625568  1
  C  C219  1  0.29129065  0.01192416  0.68495990  1
  H  H220  1  0.34663697  0.05754045  0.38478652  1
  C  C221  1  0.49250426  0.07797056  0.62356251  1
  O  O222  1  0.27508640  0.22029330  0.46988719  1
  H  H223  1  0.39260134  0.24553788  0.56098025  1
  O  O224  1  0.28417509  0.24123367  0.70286183  1
  H  H225  1  0.48611815  0.11272246  0.36232194  1
  H  H226  1  0.27187217  0.11280559  0.36989085  1
  C  C227  1  0.32171016  0.07484426  0.33422401  1
  C  C228  1  0.29736215  0.09765802  0.42085415  1
  H  H229  1  0.30977592  0.24700921  0.24331939  1
  H  H230  1  0.49485849  0.00061466  0.51882267  1
  H  H231  1  0.48821674  0.23523046  0.53353585  1
  O  O232  1  0.30681330  0.33660745  0.44679677  1
  O  O233  1  0.45263071  0.45997081  0.48535128  1
  O  O234  1  0.40653265  0.43144789  0.64393332  1
  H  H235  1  0.28126668  0.49681586  0.31654728  1
  C  C236  1  0.27868328  0.40338980  0.54094540  1
  C  C237  1  0.45075223  0.33996927  0.64980855  1
  H  H238  1  0.28603112  0.30821677  0.15672905  1
  H  H239  1  0.44469555  0.42631428  0.46054010  1
  C  C240  1  0.42019416  0.30715775  0.65843297  1
  C  C241  1  0.41431975  0.27336719  0.54855714  1
  C  C242  1  0.27720796  0.35250547  0.49370311  1
  C  C243  1  0.31117348  0.47695666  0.59706771  1
  H  H244  1  0.49827860  0.36956826  0.52374220  1
  C  C245  1  0.43950375  0.44040775  0.05258969  1
  H  H246  1  0.34058152  0.41187316  0.52486219  1
  C  C247  1  0.42478403  0.46545682  0.61016297  1
  O  O248  1  0.44460109  0.35508616  0.91162225  1
  C  C249  1  0.31369229  0.42762688  0.56103414  1
  H  H250  1  0.40306192  0.30838703  0.75915500  1
  H  H251  1  0.47960859  0.31664072  0.30106057  1
  H  H252  1  0.41263591  0.43615937  0.98925500  1
  C  C253  1  0.46476860  0.31311947  0.40628244  1
  H  H254  1  0.46275436  0.43520477  0.97870362  1
  C  C255  1  0.47366178  0.34494775  0.52289802  1
  H  H256  1  0.44038807  0.41257583  0.14240417  1
  C  C257  1  0.45882341  0.36443684  0.79383304  1
  C  C258  1  0.44009207  0.27340652  0.42288444  1
  C  C259  1  0.43951976  0.49228600  0.11239811  1
  H  H260  1  0.37563980  0.26317676  0.28584899  1
  C  C261  1  0.25702053  0.29861428  0.14545920  1
  H  H262  1  0.48209262  0.41441474  0.69289981  1
  O  O263  1  0.48751651  0.40296941  0.79341726  1
  H  H264  1  0.46255778  0.25987349  0.89847611  1
  H  H265  1  0.49191263  0.27307325  0.74838706  1
  H  H266  1  0.45314406  0.49531106  0.22519991  1
  H  H267  1  0.33782616  0.49528540  0.62502134  1
  H  H268  1  0.38098094  0.48920598  0.83330991  1
  C  C269  1  0.43587232  0.73293738  0.89891532  1
  C  C270  1  0.32765293  0.54399559  0.25707788  1
  H  H271  1  0.26060952  0.59792180  0.94289455  1
  C  C272  1  0.36859794  0.71843560  0.90971774  1
  C  C273  1  0.29697043  0.72309489  0.96366280  1
  C  C274  1  0.39355084  0.56484505  0.85610551  1
  C  C275  1  0.41575982  0.60396142  0.79872026  1
  H  H276  1  0.35258684  0.67283098  0.22717739  1
  C  C277  1  0.31808014  0.67163029  0.57770371  1
  C  C278  1  0.37873828  0.65098966  0.21591532  1
  C  C279  1  0.28841688  0.63420201  0.60065379  1
  C  C280  1  0.38053779  0.60149487  0.18843523  1
  H  H281  1  0.46143670  0.62126419  0.64257055  1
  C  C282  1  0.41386096  0.67360963  0.23148392  1
  C  C283  1  0.31771145  0.59938740  0.04535695  1
  O  O284  1  0.40603190  0.52289834  0.13416351  1
  H  H285  1  0.32218045  0.63410232  0.98707567  1
  H  H286  1  0.27836745  0.73570293  0.61140495  1
  C  C287  1  0.27034127  0.54768680  0.13126993  1
  C  C288  1  0.35635058  0.65883580  0.54741306  1
  C  C289  1  0.34142982  0.58077887  0.16265912  1
  C  C290  1  0.37664793  0.66965637  0.87451229  1
  O  O291  1  0.33323739  0.56772778  0.58679824  1
  H  H292  1  0.37293227  0.57110114  0.95057396  1
  H  H293  1  0.49413961  0.55927321  0.40388599  1
  C  C294  1  0.44461535  0.59529793  0.19201675  1
  C  C295  1  0.44710415  0.64503704  0.20468357  1
  H  H296  1  0.34668245  0.52885212  0.34286332  1
  H  H297  1  0.27086613  0.66833374  0.17977156  1
  C  C298  1  0.41452333  0.72726078  0.23850475  1
  C  C299  1  0.38464140  0.69323431  0.56088822  1
  H  H300  1  0.36520883  0.62073926  0.51996022  1
  H  H301  1  0.45471360  0.51706866  0.03049681  1
  C  C302  1  0.26834217  0.55141358  0.63858941  1
  C  C303  1  0.44353685  0.59303014  0.69196110  1
  C  C304  1  0.48421943  0.57618962  0.15923460  1
  Cu  Cu305  1  0.46855309  0.71690059  0.52128861  1
  C  C306  1  0.29212264  0.52394715  0.23862911  1
  C  C307  1  0.42197326  0.51481357  0.66981400  1
  H  H308  1  0.41397182  0.68445726  0.54128176  1
  C  C309  1  0.41250159  0.65518443  0.85646613  1
  C  C310  1  0.41068935  0.56859791  0.16751153  1
  C  C311  1  0.28138866  0.58161233  0.02629338  1
  H  H312  1  0.29434976  0.68412326  0.98198734  1
  H  H313  1  0.35548819  0.64153277  0.85120418  1
  O  O314  1  0.47942141  0.66598204  0.86234224  1
  C  C315  1  0.44472748  0.55090748  0.61293689  1
  C  C316  1  0.30091152  0.58339169  0.60219469  1
  H  H317  1  0.47964985  0.59040894  0.91708562  1
  H  H318  1  0.35593287  0.73847290  0.29384250  1
  C  C319  1  0.30743844  0.72201992  0.58301020  1
  H  H320  1  0.47722980  0.73154840  0.24720781  1
  C  C321  1  0.44612986  0.68465111  0.87309886  1
  O  O322  1  0.49279954  0.66008873  0.48682616  1
  H  H323  1  0.47588956  0.66259268  0.19686615  1
  C  C324  1  0.39630338  0.51989165  0.79598593  1
  H  H325  1  0.46414003  0.54451432  0.51770524  1
  C  C326  1  0.25261086  0.65064357  0.63953936  1
  C  C327  1  0.37421003  0.74221866  0.57053014  1
  C  C328  1  0.33067541  0.74363512  0.91307499  1
  C  C329  1  0.49844465  0.57678478  0.00812104  1
  C  C330  1  0.27501257  0.50042659  0.61770252  1
  C  C331  1  0.41733485  0.83168072  0.22370004  1
  H  H332  1  0.38012475  0.91054005  0.29317502  1
  H  H333  1  0.35766140  0.88771990  0.87776549  1
  C  C334  1  0.29668027  0.81865631  0.88723385  1
  H  H335  1  0.48052373  0.80551920  0.69985395  1
  H  H336  1  0.35334969  0.80901754  0.82270722  1
  O  O337  1  0.42245824  0.87694984  0.19994478  1
  H  H338  1  0.45822007  0.84322662  0.02388877  1
  H  H339  1  0.39782794  0.98109796  0.17744274  1
  H  H340  1  0.29271614  0.90115932  0.53075403  1
  C  C341  1  0.45950709  0.77727377  0.91604728  1
  H  H342  1  0.40810229  0.95393562  0.99513333  1
  C  C343  1  0.33145680  0.89937916  0.83057573  1
  C  C344  1  0.45697351  0.82053361  0.91957607  1
  H  H345  1  0.35743254  0.96953165  0.82211174  1
  H  H346  1  0.47284835  0.89253531  0.32936165  1
  C  C347  1  0.38667679  0.95503411  0.09237087  1
  H  H348  1  0.35973425  0.87476235  0.48354390  1
  C  C349  1  0.44995008  0.79970161  0.22690699  1
  C  C350  1  0.31563492  0.80491589  0.21824520  1
  C  C351  1  0.29949382  0.86810606  0.82669998  1
  O  O352  1  0.39329630  0.82184243  0.62894488  1
  C  C353  1  0.34550710  0.82724652  0.29873406  1
  C  C354  1  0.27803468  0.81528273  0.24731663  1
  C  C355  1  0.33265555  0.94766151  0.79677159  1
  C  C356  1  0.29885590  0.87382072  0.44483455  1
  H  H357  1  0.36112506  0.88393418  0.12847220  1
  O  O358  1  0.43927915  0.77276989  0.54885903  1
  C  C359  1  0.38460095  0.90673343  0.17041535  1
  H  H360  1  0.39432596  0.78834846  0.95170359  1
  C  C361  1  0.27193345  0.85104280  0.35316950  1
  C  C362  1  0.32881668  0.79255135  0.87159365  1
  C  C363  1  0.26067668  0.80320354  0.94465879  1
  H  H364  1  0.35841594  0.96973407  0.05246112  1
  C  C365  1  0.26580070  0.93382599  0.71371584  1
  C  C366  1  0.38346310  0.80528024  0.25327064  1
  C  C367  1  0.26646987  0.88717968  0.75636573  1
  H  H368  1  0.32990462  0.79148963  0.61004999  1
  C  C369  1  0.48798179  0.80176774  0.81942613  1
  C  C370  1  0.29681458  0.96305457  0.73869227  1
  C  C371  1  0.40282211  0.78240781  0.58473032  1
  C  C372  1  0.33590103  0.85972343  0.41757679  1
  H  H373  1  0.32318809  0.77962826  0.12697639  1
  C  C374  1  0.48847080  0.82005531  0.22841882  1
  C  C375  1  0.49618676  0.86818252  0.27835413  1
  H  H376  1  0.25401145  0.80018655  0.19378304  1
  C  C377  1  0.38170096  0.75597810  0.25856543  1
  C  C378  1  0.26522145  0.75304713  0.98317541  1
  C  C379  1  0.45049802  0.75014249  0.23866978  1
  C  C380  1  0.39864300  0.75071538  0.93250126  1
  C  C381  1  0.33533656  0.75481245  0.58391947  1
  C  C382  1  0.53391703  0.07694094  0.63280385  1
  H  H383  1  0.52223913  0.03925129  0.30384088  1
  Cu  Cu384  1  0.71432335  0.16044754  0.68102589  1
  H  H385  1  0.60340672  0.13596911  0.82580136  1
  C  C386  1  0.69150726  0.08870822  0.01368054  1
  C  C387  1  0.50583701  0.05557978  0.21467675  1
  O  O388  1  0.67467277  0.08102425  0.52136439  1
  C  C389  1  0.72828511  0.09281327  0.08482132  1
  H  H390  1  0.57987771  0.10327344  0.13785202  1
  C  C391  1  0.61283656  0.09032426  0.61932529  1
  C  C392  1  0.67802338  0.04286670  0.00221114  1
  H  H393  1  0.60974182  0.22694661  0.99101295  1
  C  C394  1  0.72496080  0.18319139  0.07872222  1
  H  H395  1  0.61493227  0.04195277  0.43313070  1
  C  C396  1  0.59082847  0.11341626  0.73663628  1
  C  C397  1  0.58765462  0.11989927  0.24764760  1
  C  C398  1  0.50447694  0.03862329  0.06645952  1
  H  H399  1  0.65161065  0.03786011  0.93564376  1
  C  C400  1  0.65254085  0.10228580  0.61216655  1
  C  C401  1  0.68198481  0.24522337  0.56976675  1
  Cu  Cu402  1  0.72351833  0.10422967  0.46545371  1
  H  H403  1  0.53334077  0.12525301  0.82925974  1
  O  O404  1  0.71310416  0.22119150  0.59441952  1
  O  O405  1  0.66637295  0.13224003  0.70476117  1
  C  C406  1  0.55764105  0.04900175  0.53309793  1
  H  H407  1  0.50914483  0.23248328  0.88498190  1
  C  C408  1  0.59611201  0.05904703  0.51600506  1
  O  O409  1  0.68855567  0.18118218  0.09301924  1
  H  H410  1  0.54337526  0.02045114  0.47926863  1
  C  C411  1  0.73392470  0.00545782  0.14455582  1
  C  C412  1  0.74648462  0.05330862  0.15686935  1
  C  C413  1  0.62302333  0.13305656  0.27700875  1
  C  C414  1  0.55202121  0.10781397  0.74095284  1
  H  H415  1  0.67638155  0.11708008  0.95661493  1
  H  H416  1  0.62991577  0.15063106  0.38850961  1
  O  O417  1  0.65533700  0.22529168  0.51627167  1
  C  C418  1  0.74711391  0.14109532  0.07690934  1
  C  C419  1  0.53299024  0.00148198  0.03469663  1
  H  H420  1  0.56473082  0.12543589  0.32426040  1
  C  C421  1  0.66732862  0.23119038  0.10329514  1
  H  H422  1  0.64675940  0.12242853  0.19575077  1
  C  C423  1  0.62417925  0.23763481  0.09238736  1
  H  H424  1  0.61123490  0.21815215  0.19250128  1
  C  C425  1  0.54903487  0.21150828  0.53204837  1
  H  H426  1  0.54870529  0.17468154  0.58738477  1
  H  H427  1  0.68025627  0.24255258  0.20707708  1
  H  H428  1  0.57180463  0.20816372  0.44376493  1
  H  H429  1  0.55567264  0.23744772  0.62113189  1
  C  C430  1  0.51162727  0.22623820  0.45332834  1
  C  C431  1  0.69831571  0.00350228  0.06256093  1
  C  C432  1  0.63891796  0.47679312  0.53087112  1
  H  H433  1  0.62056315  0.29821353  0.53998080  1
  Cu  Cu434  1  0.65698175  0.48724513  0.21121788  1
  H  H435  1  0.73653654  0.45141836  0.53466253  1
  H  H436  1  0.68981251  0.35435595  0.29792014  1
  C  C437  1  0.71283684  0.37416456  0.57908866  1
  C  C438  1  0.71527100  0.32541093  0.57127610  1
  C  C439  1  0.67656929  0.45143427  0.53717102  1
  C  C440  1  0.70139921  0.33642459  0.19313933  1
  H  H441  1  0.61299408  0.27554861  0.11180481  1
  C  C442  1  0.67233263  0.40210443  0.04646879  1
  O  O443  1  0.66272122  0.41786976  0.92290852  1
  H  H444  1  0.74374879  0.30898487  0.55886468  1
  C  C445  1  0.68160568  0.29935409  0.57419683  1
  C  C446  1  0.64569501  0.32113078  0.55664686  1
  C  C447  1  0.71116338  0.47464960  0.52394368  1
  C  C448  1  0.70193231  0.33257132  0.91294779  1
  C  C449  1  0.64495077  0.37056948  0.56550854  1
  H  H450  1  0.74073916  0.39212956  0.56570348  1
  C  C451  1  0.72533364  0.29235413  0.92654776  1
  C  C452  1  0.72515760  0.29702200  0.21280787  1
  C  C453  1  0.67817992  0.40047060  0.56746082  1
  C  C454  1  0.69313246  0.35598605  0.05321934  1
  O  O455  1  0.60983922  0.45568092  0.54587937  1
  H  H456  1  0.61673657  0.38596110  0.54223783  1
  H  H457  1  0.73382211  0.27160698  0.83026730  1
  O  O458  1  0.66538693  0.42303160  0.16923638  1
  H  H459  1  0.69155804  0.34691223  0.80415069  1
  Cu  Cu460  1  0.64403291  0.47667004  0.87443330  1
  C  C461  1  0.73532293  0.27482321  0.07483859  1
  H  H462  1  0.73214528  0.28207838  0.31721391  1
  O  O463  1  0.60599824  0.49294757  0.17897644  1
  H  H464  1  0.51379508  0.25945057  0.38374450  1
  H  H465  1  0.68168897  0.25220753  0.01678110  1
  H  H466  1  0.64169738  0.60877459  0.31812995  1
  H  H467  1  0.55850147  0.64474787  0.88698641  1
  C  C468  1  0.53396344  0.55786383  0.97867787  1
  C  C469  1  0.74772296  0.55238730  0.45825988  1
  C  C470  1  0.57628643  0.55737699  0.56312985  1
  C  C471  1  0.58652793  0.63509466  0.36478543  1
  H  H472  1  0.73210347  0.54297784  0.70555117  1
  C  C473  1  0.67866863  0.55287478  0.49634849  1
  H  H474  1  0.67739314  0.59293989  0.48580694  1
  C  C475  1  0.73954763  0.74074583  0.41581823  1
  C  C476  1  0.61284678  0.56492992  0.49315436  1
  O  O477  1  0.53024029  0.70135492  0.33469753  1
  H  H478  1  0.52314586  0.58930952  0.60949943  1
  H  H479  1  0.74989171  0.68436789  0.59032305  1
  H  H480  1  0.55695737  0.67541947  0.06506545  1
  C  C481  1  0.51480847  0.70033066  0.89448765  1
  C  C482  1  0.61633749  0.60453957  0.39026973  1
  H  H483  1  0.58834384  0.66341203  0.27605072  1
  C  C484  1  0.55254358  0.62913566  0.44405644  1
  H  H485  1  0.72499914  0.62245479  0.41310285  1
  H  H486  1  0.55825423  0.52546905  0.34328560  1
  C  C487  1  0.54896791  0.59121370  0.54653345  1
  C  C488  1  0.55355742  0.68035414  0.93695661  1
  H  H489  1  0.51644301  0.71928953  0.78411396  1
  C  C490  1  0.71237962  0.52500279  0.48728514  1
  C  C491  1  0.55381793  0.53814978  0.10001151  1
  C  C492  1  0.58932560  0.51398320  0.06997966  1
  C  C493  1  0.70681746  0.52696412  0.98769914  1
  C  C494  1  0.54012486  0.53680456  0.25118929  1
  C  C495  1  0.52393197  0.66512169  0.41414811  1
  H  H496  1  0.57691052  0.70497125  0.91022937  1
  H  H497  1  0.57036482  0.52719214  0.64246347  1
  C  C498  1  0.64382365  0.52876777  0.50368356  1
  H  H499  1  0.54484593  0.55553545  0.86415651  1
  C  C500  1  0.50564246  0.55795717  0.28432686  1
  H  H501  1  0.50298844  0.72574428  0.98052603  1
  C  C502  1  0.74200610  0.55353737  0.95613508  1
  O  O503  1  0.68469408  0.51468238  0.88205090  1
  C  C504  1  0.74905376  0.56170079  0.79744302  1
  H  H505  1  0.72313758  0.74491420  0.81469311  1
  O  O506  1  0.69850005  0.51821398  0.12110863  1
  O  O507  1  0.59966060  0.51083290  0.93481320  1
  C  C508  1  0.51951415  0.78995058  0.17965103  1
  O  O509  1  0.60426020  0.91515588  0.26661427  1
  H  H510  1  0.57895290  0.78033124  0.15696812  1
  H  H511  1  0.59899337  0.80263002  0.47872726  1
  O  O512  1  0.53756261  0.80516016  0.59064079  1
  C  C513  1  0.60188463  0.86930422  0.25744724  1
  C  C514  1  0.61448201  0.79963066  0.58578484  1
  O  O515  1  0.53378578  0.98279808  0.91573436  1
  C  C516  1  0.56446288  0.85132232  0.24776495  1
  C  C517  1  0.72975755  0.79829839  0.21647947  1
  C  C518  1  0.61063277  0.79935242  0.86709112  1
  H  H519  1  0.53882259  0.91890306  0.30276973  1
  C  C520  1  0.64948118  0.80461037  0.87295993  1
  H  H521  1  0.51078787  0.75508304  0.12787632  1
  C  C522  1  0.59419625  0.79950624  0.72400332  1
  C  C523  1  0.55716121  0.80388020  0.19805006  1
  O  O524  1  0.63155346  0.84493343  0.23071666  1
  H  H525  1  0.66983895  0.79916872  0.48207451  1
  O  O526  1  0.69969482  0.92156186  0.12197848  1
  C  C527  1  0.66973711  0.80293850  0.73663803  1
  C  C528  1  0.68047350  0.95812171  0.05582741  1
  H  H529  1  0.64706199  0.87525584  0.62732067  1
  Cu  Cu530  1  0.60155525  0.95469219  0.08993657  1
  C  C531  1  0.53307476  0.88336427  0.27652108  1
  O  O532  1  0.70235181  0.81513276  0.29137424  1
  H  H533  1  0.74013895  0.93799462  0.38658314  1
  O  O534  1  0.53345297  0.80311246  0.83551957  1
  C  C535  1  0.64236046  0.95143665  0.67408218  1
  C  C536  1  0.73676028  0.77632701  0.75657246  1
  C  C537  1  0.65352558  0.79772849  0.58974913  1
  C  C538  1  0.55374537  0.80129965  0.71679083  1
  C  C539  1  0.71163852  0.81185362  0.70309799  1
  C  C540  1  0.72264426  0.85507782  0.63127628  1
  H  H541  1  0.66475262  0.80605832  0.98907493  1
  Cu  Cu542  1  0.67949415  0.87149854  0.26155242  1
  C  C543  1  0.66408127  0.90367152  0.68881069  1
  H  H544  1  0.59283663  0.79796814  0.97150705  1
  O  O545  1  0.55984535  0.99327651  0.13610357  1
  O  O546  1  0.64905752  0.94899169  0.00464171  1
  O  O547  1  0.70211371  0.89323047  0.59933985  1
  H  H548  1  0.66253340  0.88882281  0.80585241  1
  H  H549  1  0.66213845  0.98285705  0.68798014  1
  Cu  Cu550  1  0.53082709  0.75455787  0.45722413  1
  Cu  Cu551  1  0.73821703  0.87811661  0.06717533  1
  C  C552  1  0.74961042  0.75728490  0.27109428  1
  H  H553  1  0.62711735  0.95232137  0.56652523  1
  O  O554  1  0.74049087  0.81445486  0.09222961  1
  H  H555  1  0.62163403  0.95745279  0.76502638  1
  H  H556  1  0.74826076  0.97447336  0.19066169  1
  H  H557  1  0.72004709  0.75999325  0.48718567  1
  C  C558  1  0.91762009  0.18524334  0.09639898  1
  C  C559  1  0.93244098  0.13754500  0.08221559  1
  C  C560  1  0.82684398  0.14922779  0.56638563  1
  C  C561  1  0.90145055  0.10794626  0.05824840  1
  H  H562  1  0.79707921  0.09995974  0.07819820  1
  C  C563  1  0.96474042  0.09131570  0.45570062  1
  O  O564  1  0.96776752  0.12325964  0.10074869  1
  C  C565  1  0.85055720  0.16904915  0.08435378  1
  C  C566  1  0.87255304  0.02917259  0.15040309  1
  C  C567  1  0.95664941  0.00538394  0.72822704  1
  C  C568  1  0.97928337  0.05195153  0.34574542  1
  O  O569  1  0.99480009  0.12975228  0.49398954  1
  C  C570  1  0.90032370  0.05327519  0.06116469  1
  C  C571  1  0.78611167  0.13557229  0.07616388  1
  C  C572  1  0.75041859  0.22416644  0.07245062  1
  H  H573  1  0.90732180  0.24221121  0.67685955  1
  C  C574  1  0.86318791  0.12224468  0.05209832  1
  C  C575  1  0.98142858  0.16987381  0.54490444  1
  C  C576  1  0.92469805  0.02445620  0.97316807  1
  C  C577  1  0.94227026  0.24306782  0.27931948  1
  C  C578  1  0.78989896  0.22263803  0.07325757  1
  C  C579  1  0.93620250  0.23105965  0.65674210  1
  H  H580  1  0.89786933  0.16061326  0.32143468  1
  C  C581  1  0.80919336  0.17650601  0.07591112  1
  H  H582  1  0.84290499  0.09440193  0.04020585  1
  H  H583  1  0.97219827  0.23435359  0.91077302  1
  C  C584  1  0.94457257  0.18749626  0.58734099  1
  H  H585  1  0.77108848  0.05904721  0.23019792  1
  C  C586  1  0.84648168  0.15952407  0.70070453  1
  C  C587  1  0.94807312  0.04567806  0.85672972  1
  C  C588  1  0.94294146  0.22822951  0.13059466  1
  O  O589  1  0.84353941  0.04330926  0.51336981  1
  O  O590  1  0.76680678  0.15180792  0.68691513  1
  H  H591  1  0.92050368  0.23129221  0.36043768  1
  C  C592  1  0.88024077  0.20128085  0.09296848  1
  H  H593  1  0.85036250  0.04937203  0.21430166  1
  H  H594  1  0.94166543  0.08406809  0.82339795  1
  C  C595  1  0.78662475  0.14127447  0.57127257  1
  H  H596  1  0.82999045  0.15949919  0.80313064  1
  C  C597  1  0.88493597  0.15578693  0.43334610  1
  H  H598  1  0.83219783  0.13934495  0.31817805  1
  C  C599  1  0.84633577  0.14595604  0.42436218  1
  C  C600  1  0.88502910  0.16477485  0.70250952  1
  H  H601  1  0.95454140  0.07572854  0.56004828  1
  H  H602  1  0.89879734  0.17180339  0.81542702  1
  C  C603  1  0.90572648  0.16628440  0.56655810  1
  H  H604  1  0.94270920  0.11520169  0.40678274  1
  C  C605  1  0.96857795  0.24882405  0.02419565  1
  O  O606  1  0.77257915  0.12960095  0.44682542  1
  H  H607  1  0.87413986  0.23963926  0.11683537  1
  H  H608  1  0.99675522  0.06754561  0.25461844  1
  C  C609  1  0.98402448  0.01785268  0.78942328  1
  H  H610  1  0.99541589  0.02360405  0.40278191  1
  H  H611  1  0.98414965  0.18030055  0.25539700  1
  H  H612  1  0.95595845  0.03750511  0.27988090  1
  H  H613  1  0.99872138  0.18078915  0.05502621  1
  C  C614  1  0.99572683  0.15847243  0.16011309  1
  C  C615  1  0.83980940  0.00102565  0.52167599  1
  C  C616  1  0.96584423  0.26334516  0.69323404  1
  C  C617  1  0.81847584  0.37901744  0.09409432  1
  C  C618  1  0.86401305  0.43308378  0.45543554  1
  O  O619  1  0.93842327  0.42920816  0.06279995  1
  C  C620  1  0.90993112  0.49572720  0.54273888  1
  H  H621  1  0.85849802  0.31330944  0.38714648  1
  C  C622  1  0.96644806  0.27754761  0.32986538  1
  C  C623  1  0.88777722  0.32945369  0.17760850  1
  H  H624  1  0.91517752  0.31212561  0.20666606  1
  C  C625  1  0.88156196  0.35499866  0.04009469  1
  H  H626  1  0.81188060  0.45581216  0.35594430  1
  C  C627  1  0.85768703  0.33329914  0.28371782  1
  H  H628  1  0.79214694  0.39910093  0.07761917  1
  C  C629  1  0.98224574  0.37824270  0.92353376  1
  C  C630  1  0.91811915  0.35240951  0.95018408  1
  O  O631  1  0.76688393  0.38997175  0.33430185  1
  H  H632  1  0.85887860  0.39404189  0.42906636  1
  H  H633  1  0.89571238  0.41459805  0.20888975  1
  H  H634  1  0.90183134  0.28767344  0.84746362  1
  C  C635  1  0.94466303  0.38801295  0.98315881  1
  C  C636  1  0.92379039  0.31516595  0.85010796  1
  H  H637  1  0.98572807  0.47385122  0.03524906  1
  H  H638  1  0.96830043  0.28501302  0.45107823  1
  C  C639  1  0.84649802  0.37410045  0.98414658  1
  H  H640  1  0.88310307  0.43376225  0.01045469  1
  C  C641  1  0.96000862  0.30877066  0.78378130  1
  C  C642  1  0.82337625  0.35523608  0.23354168  1
  C  C643  1  0.90021320  0.44754893  0.51383111  1
  C  C644  1  0.90152741  0.44187455  0.11506002  1
  O  O645  1  0.91920436  0.36991245  0.50568095  1
  H  H646  1  0.84284499  0.38350183  0.86471357  1
  C  C647  1  0.79242527  0.36075945  0.35852861  1
  O  O648  1  0.96189140  0.41761522  0.60581932  1
  C  C649  1  0.92672529  0.40894291  0.54844585  1
  C  C650  1  0.83751650  0.46786063  0.41150094  1
  C  C651  1  0.98943123  0.34041852  0.82378686  1
  O  O652  1  0.79681365  0.34227835  0.48270025  1
  H  H653  1  0.80758708  0.25571108  0.07176596  1
  H  H654  1  0.78181283  0.48912276  0.48641994  1
  H  H655  1  0.86305455  0.49638565  0.22771038  1
  C  C656  1  0.89246413  0.49161462  0.17822996  1
  C  C657  1  0.99727658  0.27670304  0.08575596  1
  C  C658  1  0.99693723  0.29171623  0.23776521  1
  Cu  Cu659  1  0.99636091  0.37562090  0.52956862  1
  C  C660  1  0.97970907  0.72192831  0.47482775  1
  O  O661  1  0.85482940  0.62106782  0.39790672  1
  C  C662  1  0.82155526  0.60136437  0.41344280  1
  C  C663  1  0.86085375  0.67474229  0.42631046  1
  C  C664  1  0.75004484  0.60132457  0.42501208  1
  H  H665  1  0.80876070  0.67039508  0.14401501  1
  C  C666  1  0.84839289  0.51599366  0.44794538  1
  H  H667  1  0.81745370  0.60239909  0.14249185  1
  O  O668  1  0.87835796  0.63263901  0.97189119  1
  C  C669  1  0.81779346  0.66266068  0.88649710  1
  C  C670  1  0.94693729  0.60077772  0.02418103  1
  C  C671  1  0.77813355  0.59282630  0.78478097  1
  H  H672  1  0.97214675  0.51862403  0.30571991  1
  H  H673  1  0.88844252  0.56723643  0.54666064  1
  C  C674  1  0.98740712  0.62909181  0.36742499  1
  C  C675  1  0.79506917  0.59618367  0.05510124  1
  H  H676  1  0.88915465  0.68522056  0.40454029  1
  H  H677  1  0.94044413  0.58130097  0.12939443  1
  C  C678  1  0.77976860  0.67375671  0.36806175  1
  H  H679  1  0.92985354  0.66896705  0.91400886  1
  H  H680  1  0.91844548  0.65979113  0.12152211  1
  C  C681  1  0.84465934  0.69524716  0.57115859  1
  C  C682  1  0.79895462  0.61506714  0.90976021  1
  H  H683  1  0.92180107  0.70071606  0.54067903  1
  H  H684  1  0.81469462  0.68586641  0.58219093  1
  C  C685  1  0.88286458  0.53089809  0.51371298  1
  H  H686  1  0.84176158  0.68676318  0.33238650  1
  C  C687  1  0.77737849  0.73548002  0.17718547  1
  H  H688  1  0.84739125  0.73534402  0.57789889  1
  C  C689  1  0.81634474  0.55088923  0.43035048  1
  H  H690  1  0.89313815  0.71844027  0.19961621  1
  C  C691  1  0.76426379  0.56680043  0.08049741  1
  H  H692  1  0.85813899  0.67916728  0.67480194  1
  C  C693  1  0.78529571  0.62184442  0.40842615  1
  C  C694  1  0.79239593  0.69668729  0.83283409  1
  H  H695  1  0.75839369  0.55393414  0.19610186  1
  H  H696  1  0.97735057  0.61306268  0.01830703  1
  H  H697  1  0.89080857  0.51781588  0.08525792  1
  C  C698  1  0.95352222  0.64391938  0.43807823  1
  C  C699  1  0.92004559  0.64336225  0.00609147  1
  C  C700  1  0.78284536  0.52766595  0.45820058  1
  H  H701  1  0.93002507  0.61981623  0.45127901  1
  O  O702  1  0.96084554  0.55078764  0.32652512  1
  C  C703  1  0.85578833  0.66724586  0.93399142  1
  H  H704  1  0.99554860  0.66210143  0.89149702  1
  C  C705  1  0.86258554  0.71774295  0.92181323  1
  C  C706  1  0.94798372  0.69043815  0.48881056  1
  H  H707  1  0.94011831  0.57651969  0.92890552  1
  C  C708  1  0.79046315  0.69039817  0.22206730  1
  H  H709  1  0.78674132  0.59976012  0.66927197  1
  H  H710  1  0.76200065  0.68790932  0.83409110  1
  H  H711  1  0.98007206  0.60935288  0.77623325  1
  H  H712  1  0.98424740  0.66584422  0.69039248  1
  C  C713  1  0.89959864  0.74141903  0.96327133  1
  C  C714  1  0.80306378  0.74555576  0.81090877  1
  C  C715  1  0.75574044  0.69912240  0.46949856  1
  C  C716  1  0.99724293  0.64311066  0.78176269  1
  C  C717  1  0.99296527  0.58118709  0.29926650  1
  C  C718  1  0.91094670  0.73740873  0.11609765  1
  H  H719  1  0.91208867  0.50316390  0.26905562  1
  H  H720  1  0.93722649  0.50436868  0.59067365  1
  H  H721  1  0.85010661  0.79174689  0.86088525  1
  H  H722  1  0.94989103  0.91993556  0.33505526  1
  H  H723  1  0.85705723  0.79079935  0.21040567  1
  C  C724  1  0.81319468  0.92030619  0.13514381  1
  H  H725  1  0.83396686  0.84510167  0.26442689  1
  C  C726  1  0.99510248  0.82142327  0.09731075  1
  C  C727  1  0.95059419  0.84956809  0.55129418  1
  H  H728  1  0.97078549  0.81423975  0.82143836  1
  C  C729  1  0.77518367  0.89273821  0.49104566  1
  H  H730  1  0.78843071  0.75595746  0.07634386  1
  C  C731  1  0.76526378  0.91473391  0.37720629  1
  C  C732  1  0.96235174  0.79001592  0.05515279  1
  H  H733  1  0.89921556  0.98452060  0.32239348  1
  H  H734  1  0.84714030  0.93582677  0.73988889  1
  H  H735  1  0.89977050  0.84708283  0.37935719  1
  O  O736  1  0.77665228  0.90125339  0.19607030  1
  O  O737  1  0.85869403  0.87620820  0.95538760  1
  O  O738  1  0.91352611  0.78431029  0.45287920  1
  C  C739  1  0.86979352  0.93022912  0.65273759  1
  H  H740  1  0.90082730  0.86837413  0.75957350  1
  C  C741  1  0.84685897  0.81212873  0.30944615  1
  C  C742  1  0.80332856  0.92899709  0.46563799  1
  C  C743  1  0.92286058  0.76528777  0.85143922  1
  H  H744  1  0.92714453  0.98687286  0.99109866  1
  C  C745  1  0.82923532  0.96309696  0.17296751  1
  C  C746  1  0.92405906  0.89172571  0.54650961  1
  C  C747  1  0.76261121  0.85353516  0.58233744  1
  H  H748  1  0.81904465  0.82248021  0.59687755  1
  C  C749  1  0.83843789  0.75495113  0.87465488  1
  C  C750  1  0.89989699  0.95925916  0.41610990  1
  C  C751  1  0.87815005  0.82259609  0.42359937  1
  C  C752  1  0.89745825  0.89466630  0.66734666  1
  C  C753  1  0.86432658  0.98166008  0.11889802  1
  H  H754  1  0.88182202  0.96298772  0.03830331  1
  C  C755  1  0.78887333  0.81877042  0.63980072  1
  C  C756  1  0.87251234  0.96191908  0.53156197  1
  C  C757  1  0.95284592  0.79283359  0.90155689  1
  H  H758  1  0.95051354  0.76349195  0.28267228  1
  C  C759  1  0.92590377  0.92159432  0.41874067  1
  H  H760  1  0.83186258  0.91255126  0.43639365  1
  C  C761  1  0.94491895  0.80161332  0.51499775  1
  H  H762  1  0.86933181  0.83128983  0.53885709  1
  H  H763  1  0.82335710  0.79178371  0.36142160  1
  C  C764  1  0.77615260  0.78087765  0.73067643  1
  C  C765  1  0.83718722  0.89416355  0.03591735  1
  O  O766  1  0.80466794  0.98045018  0.51438948  1
  H  H767  1  0.81483551  0.98628563  0.25065523  1
  C  C768  1  0.94241496  0.76276564  0.16092835  1
  C  C769  1  0.97763837  0.77214249  0.52866725  1
  H  H770  1  0.94632177  0.96856254  0.69516161  1
  H  H771  1  0.91608786  0.76416574  0.73126547  1
  C  C772  1  0.98608506  0.86777529  0.61036976  1
  H  H773  1  0.99234768  0.90346921  0.66029719  1
