# generated using pymatgen
data_CuH15C22O5
_symmetry_space_group_name_H-M   'P 1'
_cell_length_a   30.88376441
_cell_length_b   27.10253937
_cell_length_c   10.52376491
_cell_angle_alpha   90.00000000
_cell_angle_beta   90.00000000
_cell_angle_gamma   90.00000000
_symmetry_Int_Tables_number   1
_chemical_formula_structural   CuH15C22O5
_chemical_formula_sum   'Cu18 H270 C396 O90'
_cell_volume   8808.69053314
_cell_formula_units_Z   18
loop_
 _symmetry_equiv_pos_site_id
 _symmetry_equiv_pos_as_xyz
  1  'x, y, z'
loop_
 _atom_site_type_symbol
 _atom_site_label
 _atom_site_symmetry_multiplicity
 _atom_site_fract_x
 _atom_site_fract_y
 _atom_site_fract_z
 _atom_site_occupancy
  C  C0  1  0.09228601  0.05175151  0.38780524  1
  C  C1  1  0.09782160  0.06664989  0.25131124  1
  C  C2  1  0.12972056  0.03964946  0.18372821  1
  C  C3  1  0.07384415  0.10644346  0.20323311  1
  H  H4  1  0.13056258  0.17736491  0.15264963  1
  H  H5  1  0.08211819  0.19984949  0.22163006  1
  C  C6  1  0.21147141  0.14250137  0.10134671  1
  C  C7  1  0.14768376  0.20215218  0.08684892  1
  H  H8  1  0.04959381  0.12699736  0.26262578  1
  H  H9  1  0.07062702  0.21533362  0.44114216  1
  C  C10  1  0.06228392  0.23004232  0.17478274  1
  O  O11  1  0.06469648  0.07490174  0.46378868  1
  C  C12  1  0.03842524  0.19614286  0.43368554  1
  H  H13  1  0.15041374  0.09793661  0.41254000  1
  C  C14  1  0.21219492  0.06179286  0.37879916  1
  C  C15  1  0.02140906  0.24291001  0.21929139  1
  H  H16  1  0.22153734  0.18310141  0.27715033  1
  H  H17  1  0.20378024  0.05412820  0.27904379  1
  C  C18  1  0.18280997  0.08735871  0.45419295  1
  C  C19  1  0.23317777  0.15082865  0.21692379  1
  C  C20  1  0.07771603  0.24893337  0.06040443  1
  C  C21  1  0.18862925  0.18651256  0.04481472  1
  C  C22  1  0.07998830  0.11892889  0.07530821  1
  O  O23  1  0.11302649  0.01789631  0.43111624  1
  C  C24  1  0.01171365  0.20753666  0.32715300  1
  H  H25  1  0.01856089  0.01361891  0.04504620  1
  C  C26  1  0.21846824  0.09793952  0.02529810  1
  H  H27  1  0.14508069  0.00851237  0.23597059  1
  C  C28  1  0.13461448  0.05402656  0.05916150  1
  H  H29  1  0.05746567  0.14828494  0.04086054  1
  C  C30  1  0.12342353  0.23830672  0.01751497  1
  C  C31  1  0.03404917  0.37684790  0.20234933  1
  H  H32  1  0.12819436  0.25523149  0.28553634  1
  O  O33  1  0.24160284  0.36771461  0.06188709  1
  C  C34  1  0.23185892  0.38008570  0.16849724  1
  H  H35  1  0.00591272  0.35186143  0.17013441  1
  C  C36  1  0.13501560  0.32048526  0.42131676  1
  C  C37  1  0.15624569  0.36685591  0.44361778  1
  H  H38  1  0.20424541  0.42139678  0.38225908  1
  H  H39  1  0.18241096  0.29795030  0.13321762  1
  O  O40  1  0.04574894  0.48764267  0.39797780  1
  C  C41  1  0.18537494  0.38680116  0.35801061  1
  O  O42  1  0.03694749  0.32913541  0.41842156  1
  C  C43  1  0.17254837  0.31599821  0.22149766  1
  H  H44  1  0.07905690  0.31965361  0.24616915  1
  H  H45  1  0.05257258  0.38634453  0.11723964  1
  C  C46  1  0.19424908  0.35985696  0.24534099  1
  C  C47  1  0.00984315  0.29349087  0.04024133  1
  H  H48  1  0.08821606  0.37494223  0.35050616  1
  C  C49  1  0.14258365  0.29307873  0.30547760  1
  H  H50  1  0.01846090  0.41227969  0.24097014  1
  C  C51  1  0.06294332  0.35089512  0.30180481  1
  C  C52  1  0.14667728  0.08484618  0.78328389  1
  C  C53  1  0.10023863  0.15779457  0.83777079  1
  C  C54  1  0.15909804  0.11408244  0.67705223  1
  C  C55  1  0.11196808  0.18084075  0.72588197  1
  C  C56  1  0.14209709  0.16029453  0.64371559  1
  C  C57  1  0.09797686  0.23199631  0.67739745  1
  H  H58  1  0.21687598  0.17219408  0.73276841  1
  H  H59  1  0.07581291  0.17682743  0.90061546  1
  C  C60  1  0.11877107  0.11194312  0.86907147  1
  H  H61  1  0.04483949  0.15873886  0.61689846  1
  O  O62  1  0.16065515  0.04012089  0.80417581  1
  H  H63  1  0.03520891  0.22838898  0.76448202  1
  Cu  Cu64  1  0.00877975  0.04459699  0.75752508  1
  H  H65  1  0.21478697  0.02375243  0.70383414  1
  C  C66  1  0.22211799  0.20749566  0.68396855  1
  C  C67  1  0.21479052  0.21018565  0.94545191  1
  C  C68  1  0.11051024  0.09294732  0.99836531  1
  H  H69  1  0.19705372  0.09221037  0.94056541  1
  C  C70  1  0.23814904  0.09210089  0.62250794  1
  H  H71  1  0.16672824  0.02082479  0.61159883  1
  C  C72  1  0.19351942  0.09975439  0.58154981  1
  C  C73  1  0.05503132  0.24809856  0.69235265  1
  H  H74  1  0.24861315  0.10797898  0.71140061  1
  C  C75  1  0.24230175  0.21061237  0.56436034  1
  C  C76  1  0.02301944  0.16530141  0.53370005  1
  C  C77  1  0.18212236  0.00662140  0.69888743  1
  H  H78  1  0.15729696  0.24877669  0.56765069  1
  H  H79  1  0.15304071  0.17767259  0.55852526  1
  C  C80  1  0.18430591  0.23843224  0.86865258  1
  Cu  Cu81  1  0.01230669  0.05316502  0.51575751  1
  H  H82  1  0.15361556  0.03337334  0.99584082  1
  C  C83  1  0.12296831  0.25977952  0.58780549  1
  C  C84  1  0.14271758  0.25614539  0.90301823  1
  C  C85  1  0.24123714  0.25818443  0.50846668  1
  C  C86  1  0.19579796  0.49641704  0.56141535  1
  C  C87  1  0.10704180  0.47892055  0.51940244  1
  C  C88  1  0.20677382  0.29741974  0.68300066  1
  H  H89  1  0.15325632  0.38744703  0.53214023  1
  C  C90  1  0.12760212  0.45930387  0.62954266  1
  H  H91  1  0.05832955  0.29602323  0.89393123  1
  C  C92  1  0.03486589  0.28247083  0.61131290  1
  H  H93  1  0.00971035  0.41560337  0.74488544  1
  C  C94  1  0.06033212  0.47258015  0.50062281  1
  H  H95  1  0.10645908  0.44253031  0.70200404  1
  C  C96  1  0.00931367  0.36157435  0.88455593  1
  C  C97  1  0.20524810  0.25080893  0.74046207  1
  H  H98  1  0.04380275  0.35658642  0.87425116  1
  O  O99  1  0.03520564  0.46209843  0.59239794  1
  H  H100  1  0.12350535  0.28331571  0.84672280  1
  C  C101  1  0.17059298  0.47192638  0.65861649  1
  C  C102  1  0.05049441  0.28049898  0.98737219  1
  H  H103  1  0.19307737  0.32903550  0.72728790  1
  C  C104  1  0.22628092  0.30153632  0.56473097  1
  H  H105  1  0.18314324  0.46299507  0.75216186  1
  H  H106  1  0.22910740  0.33782750  0.51654265  1
  C  C107  1  0.05693905  0.30475976  0.50807327  1
  C  C108  1  0.10267289  0.29636551  0.51276656  1
  C  C109  1  0.06192392  0.64062310  0.16335168  1
  C  C110  1  0.07319665  0.67445382  0.26243888  1
  C  C111  1  0.03963385  0.59506154  0.19971830  1
  O  O112  1  0.03344308  0.58325992  0.32079020  1
  H  H113  1  0.06386203  0.66818344  0.35959461  1
  O  O114  1  0.02970069  0.56516787  0.11866555  1
  C  C115  1  0.09344098  0.71918887  0.23192339  1
  C  C116  1  0.10305423  0.72896029  0.10226219  1
  C  C117  1  0.07265738  0.65029310  0.03394291  1
  H  H118  1  0.10669455  0.74627690  0.30200470  1
  O  O119  1  0.24097350  0.58395818  0.43436987  1
  C  C120  1  0.09216163  0.69513274  0.00387423  1
  H  H121  1  0.19461069  0.53327404  0.38274768  1
  H  H122  1  0.11369242  0.51640347  0.34005959  1
  C  C123  1  0.17416206  0.51208936  0.44744463  1
  C  C124  1  0.12936719  0.50545789  0.42660744  1
  H  H125  1  0.03746796  0.75407599  0.03430339  1
  H  H126  1  0.02848815  0.75509164  0.21314352  1
  C  C127  1  0.01712459  0.97768609  0.23275093  1
  H  H128  1  0.18341763  0.76347203  0.03349232  1
  C  C129  1  0.02037938  0.77319703  0.11491574  1
  C  C130  1  0.10787619  0.86801503  0.09316798  1
  C  C131  1  0.03289233  0.98460676  0.10353423  1
  H  H132  1  0.02624009  0.94313001  0.40694187  1
  C  C133  1  0.16104187  0.79334751  0.04199560  1
  C  C134  1  0.17799126  0.84175222  0.03324246  1
  C  C135  1  0.07976449  0.91103996  0.13688696  1
  C  C136  1  0.11809023  0.78334965  0.07756217  1
  O  O137  1  0.04464763  0.81907882  0.12384913  1
  C  C138  1  0.08717203  0.82135808  0.09296831  1
  H  H139  1  0.02196724  0.80998433  0.47059768  1
  C  C140  1  0.03568478  0.94142752  0.30885444  1
  C  C141  1  0.06493626  0.95312761  0.06012993  1
  H  H142  1  0.16110491  0.92025695  0.06247583  1
  H  H143  1  0.07458898  0.87537657  0.31828117  1
  C  C144  1  0.06520818  0.90700617  0.26159954  1
  C  C145  1  0.15085399  0.88186693  0.06892458  1
  C  C146  1  0.09188831  0.69105597  0.64950086  1
  C  C147  1  0.13579555  0.68852449  0.60725288  1
  C  C148  1  0.06330669  0.65018546  0.64619127  1
  H  H149  1  0.07459206  0.61671187  0.59875003  1
  Cu  Cu150  1  0.20909194  0.71192283  0.71162792  1
  O  O151  1  0.15153858  0.64847479  0.56343065  1
  O  O152  1  0.16026982  0.72547957  0.63106446  1
  C  C153  1  0.02512433  0.65449332  0.71397060  1
  H  H154  1  0.09623165  0.70416491  0.90169758  1
  Cu  Cu155  1  0.20004106  0.62262374  0.64676945  1
  C  C156  1  0.03917122  0.74245368  0.77068135  1
  C  C157  1  0.07726097  0.73621914  0.70569991  1
  C  C158  1  0.01477225  0.69715864  0.78522414  1
  O  O159  1  0.24361331  0.68525752  0.83521587  1
  O  O160  1  0.24417971  0.60835503  0.76656123  1
  H  H161  1  0.00036090  0.62501478  0.71415673  1
  H  H162  1  0.06271601  0.62332632  0.96108612  1
  C  C163  1  0.24384653  0.50820209  0.56717244  1
  C  C164  1  0.01003602  0.84588574  0.50716521  1
  C  C165  1  0.04346945  0.94455250  0.74208777  1
  H  H166  1  0.07909578  0.95841629  0.96165964  1
  C  C167  1  0.17846622  0.95026734  0.70571691  1
  O  O168  1  0.02588698  0.97963320  0.80640980  1
  H  H169  1  0.06015995  0.85698095  0.63756802  1
  H  H170  1  0.20639858  0.92971419  0.66294679  1
  C  C171  1  0.01871832  0.92068651  0.63609310  1
  O  O172  1  0.07681866  0.92394185  0.77338180  1
  H  H173  1  0.09744639  0.77056196  0.70687401  1
  H  H174  1  0.20861277  0.81091702  0.79900685  1
  C  C175  1  0.03313702  0.87420754  0.59128883  1
  C  C176  1  0.23372503  0.82452293  0.86010231  1
  H  H177  1  0.17998470  0.93962123  0.80661051  1
  H  H178  1  0.14545977  0.93498617  0.67110243  1
  H  H179  1  0.02723916  0.77712729  0.81541733  1
  C  C180  1  0.22583374  0.84284919  0.98623210  1
  O  O181  1  0.41506689  0.16340011  0.14613966  1
  C  C182  1  0.32719696  0.06817628  0.16028230  1
  O  O183  1  0.34499502  0.07361146  0.26694677  1
  O  O184  1  0.34470828  0.04635476  0.06392621  1
  C  C185  1  0.28433305  0.09027035  0.15434114  1
  H  H186  1  0.46664140  0.08736111  0.19862213  1
  H  H187  1  0.28777880  0.12771205  0.33595239  1
  C  C188  1  0.26905569  0.12272503  0.25129061  1
  O  O189  1  0.42797755  0.04437494  0.35047861  1
  Cu  Cu190  1  0.37114562  0.02458531  0.36551947  1
  H  H191  1  0.27279457  0.20931689  0.11770439  1
  C  C192  1  0.45674897  0.05994029  0.43498795  1
  O  O193  1  0.27951945  0.22424534  0.33732334  1
  C  C194  1  0.25155788  0.04809640  0.43310301  1
  C  C195  1  0.43218048  0.14564786  0.05651706  1
  C  C196  1  0.25915671  0.07661463  0.04394295  1
  C  C197  1  0.28535379  0.19488926  0.02605262  1
  C  C198  1  0.49214507  0.09189225  0.38976205  1
  H  H199  1  0.28346240  0.15411654  0.04619627  1
  C  C200  1  0.49213406  0.10193333  0.25889496  1
  H  H201  1  0.34821553  0.21703050  0.11030766  1
  O  O202  1  0.42171834  0.09946040  0.01863936  1
  C  C203  1  0.47121175  0.22340766  0.02634862  1
  C  C204  1  0.27808991  0.01155036  0.35904537  1
  C  C205  1  0.33500928  0.20640036  0.01738937  1
  H  H206  1  0.45281802  0.23720790  0.10864153  1
  H  H207  1  0.37834478  0.49324330  0.13129990  1
  H  H208  1  0.49467697  0.39937806  0.25479338  1
  C  C209  1  0.42295619  0.42146667  0.46292337  1
  C  C210  1  0.26481156  0.25980450  0.38278414  1
  O  O211  1  0.25587171  0.41253660  0.22878668  1
  C  C212  1  0.41172003  0.49996796  0.09713415  1
  O  O213  1  0.36823536  0.42609859  0.30202056  1
  C  C214  1  0.48459007  0.47400332  0.44875763  1
  Cu  Cu215  1  0.31270964  0.41806965  0.25991369  1
  Cu  Cu216  1  0.31425899  0.34088563  0.39529951  1
  C  C217  1  0.38159396  0.40627286  0.40584775  1
  C  C218  1  0.44685051  0.38976392  0.09946685  1
  C  C219  1  0.47642007  0.37064536  0.20568086  1
  H  H220  1  0.41588027  0.40967259  0.14265071  1
  O  O221  1  0.27365966  0.30351575  0.32983238  1
  H  H222  1  0.43219778  0.46968563  0.30881996  1
  C  C223  1  0.44639695  0.45802767  0.39676295  1
  O  O224  1  0.35985646  0.37555301  0.46709710  1
  H  H225  1  0.45687173  0.34848770  0.27766803  1
  H  H226  1  0.46626024  0.41480630  0.03669675  1
  O  O227  1  0.42169490  0.35871144  0.00117628  1
  O  O228  1  0.33626191  0.14723932  0.64986763  1
  C  C229  1  0.36251059  0.16052348  0.72782304  1
  C  C230  1  0.36368519  0.21409294  0.76178243  1
  H  H231  1  0.42928891  0.20836436  0.83193093  1
  O  O232  1  0.38719361  0.12979626  0.78868981  1
  H  H233  1  0.30324863  0.22617913  0.65308203  1
  O  O234  1  0.31586757  0.06750104  0.83235841  1
  C  C235  1  0.30467610  0.02772485  0.77871466  1
  H  H236  1  0.47400451  0.11560579  0.82728825  1
  C  C237  1  0.48164627  0.15170241  0.86993302  1
  Cu  Cu238  1  0.37028823  0.08481921  0.93013415  1
  H  H239  1  0.26837115  0.04645385  0.98060462  1
  O  O240  1  0.45140135  0.05101916  0.54603404  1
  H  H241  1  0.30107729  0.05834691  0.58536497  1
  C  C242  1  0.40205535  0.23233926  0.81440619  1
  O  O243  1  0.25700139  0.21204462  0.92476408  1
  C  C244  1  0.26818045  0.06675272  0.55060035  1
  H  H245  1  0.25089385  0.17920579  0.50480720  1
  C  C246  1  0.33089046  0.24309987  0.70170840  1
  C  C247  1  0.46401052  0.17354011  0.98184311  1
  H  H248  1  0.35073900  0.17198164  0.99330977  1
  H  H249  1  0.34222528  0.23393234  0.94478473  1
  C  C250  1  0.33252791  0.29349819  0.72812174  1
  C  C251  1  0.46390779  0.49180341  0.91770576  1
  C  C252  1  0.39610473  0.44087487  0.90879426  1
  H  H253  1  0.32834965  0.37518040  0.66856486  1
  H  H254  1  0.41050621  0.37387969  0.63204867  1
  H  H255  1  0.43388752  0.30428298  0.85682834  1
  C  C256  1  0.42489697  0.47725983  0.98072209  1
  C  C257  1  0.34240622  0.44512465  0.74141038  1
  C  C258  1  0.34719708  0.39401040  0.73932961  1
  C  C259  1  0.43488610  0.39715774  0.57817255  1
  C  C260  1  0.40553911  0.28330083  0.82593375  1
  H  H261  1  0.48505692  0.39616703  0.72112315  1
  C  C262  1  0.40072950  0.38864249  0.92375899  1
  C  C263  1  0.36942231  0.46921022  0.82979715  1
  H  H264  1  0.25322433  0.44786281  0.69618540  1
  H  H265  1  0.47354623  0.47554994  0.82561431  1
  C  C266  1  0.36799308  0.31457789  0.80102351  1
  C  C267  1  0.31540831  0.47875168  0.64971837  1
  C  C268  1  0.26992420  0.47533129  0.63328229  1
  H  H269  1  0.30682510  0.31513129  0.68478088  1
  C  C270  1  0.47422534  0.41216910  0.62660524  1
  C  C271  1  0.37080608  0.36724053  0.83117602  1
  C  C272  1  0.49726589  0.45201814  0.56841941  1
  C  C273  1  0.37358751  0.66823041  0.34555161  1
  C  C274  1  0.36915689  0.62460315  0.27773599  1
  C  C275  1  0.35072150  0.58638090  0.34474380  1
  H  H276  1  0.37947530  0.61811185  0.17656960  1
  C  C277  1  0.39737516  0.70670932  0.26985267  1
  C  C278  1  0.33755036  0.59329033  0.47366383  1
  H  H279  1  0.43079377  0.54877235  0.25515880  1
  H  H280  1  0.34845191  0.54933667  0.30273458  1
  C  C281  1  0.44028923  0.53195486  0.15952203  1
  C  C282  1  0.48077774  0.54332066  0.10263430  1
  O  O283  1  0.40661621  0.70091674  0.16186613  1
  H  H284  1  0.43686796  0.74346859  0.05328826  1
  C  C285  1  0.35661185  0.67719693  0.46806794  1
  C  C286  1  0.26349304  0.54995938  0.49897228  1
  H  H287  1  0.26698329  0.59701754  0.37632242  1
  O  O288  1  0.40707295  0.74812601  0.33114375  1
  H  H289  1  0.35364088  0.71523910  0.49763001  1
  C  C290  1  0.35291248  0.84943742  0.20314458  1
  H  H291  1  0.25733786  0.87171605  0.15854612  1
  C  C292  1  0.39048208  0.86804216  0.26096222  1
  Cu  Cu293  1  0.45748429  0.75601553  0.41256119  1
  C  C294  1  0.37048120  0.90140193  0.01796763  1
  O  O295  1  0.31705340  0.99752600  0.40462256  1
  O  O296  1  0.48185796  0.94977812  0.20991828  1
  C  C297  1  0.45705398  0.92035607  0.26841121  1
  C  C298  1  0.30355621  0.84850299  0.00152444  1
  O  O299  1  0.48232015  0.77643220  0.24963807  1
  C  C300  1  0.40749680  0.92001254  0.07876336  1
  O  O301  1  0.26398996  0.99335570  0.26499266  1
  H  H302  1  0.42768228  0.94728232  0.02789194  1
  C  C303  1  0.41791974  0.90285716  0.20387616  1
  H  H304  1  0.33361026  0.82464700  0.25319659  1
  O  O305  1  0.46916163  0.90675375  0.37518536  1
  C  C306  1  0.26225636  0.85557343  0.06067082  1
  H  H307  1  0.43924264  0.83066334  0.09253728  1
  C  C308  1  0.34223781  0.86694417  0.07616831  1
  H  H309  1  0.39931787  0.85399897  0.35131705  1
  H  H310  1  0.49162540  0.75984432  0.00474617  1
  H  H311  1  0.26739039  0.77503082  0.47846753  1
  C  C312  1  0.37679266  0.68641753  0.86466023  1
  C  C313  1  0.31066952  0.64290498  0.82387097  1
  C  C314  1  0.38120334  0.60028232  0.80963249  1
  C  C315  1  0.33710681  0.59888144  0.81350077  1
  C  C316  1  0.40353126  0.64513224  0.82945356  1
  C  C317  1  0.45113838  0.65065346  0.82406878  1
  C  C318  1  0.33302806  0.68716171  0.85928392  1
  H  H319  1  0.45528349  0.57300136  0.76569560  1
  H  H320  1  0.32053565  0.56445890  0.79330359  1
  H  H321  1  0.39838047  0.56723289  0.79402450  1
  C  C322  1  0.47347153  0.60731181  0.78552477  1
  C  C323  1  0.47568343  0.69441359  0.84851122  1
  C  C324  1  0.26534642  0.64426648  0.80974824  1
  H  H325  1  0.48268057  0.52412343  0.65213748  1
  H  H326  1  0.31423965  0.72118588  0.88516366  1
  H  H327  1  0.38991452  0.72381920  0.88223181  1
  H  H328  1  0.32086457  0.64339168  0.63162341  1
  C  C329  1  0.33542295  0.52082761  0.59813763  1
  H  H330  1  0.37271179  0.50815127  0.82034989  1
  H  H331  1  0.36874508  0.53011310  0.62228933  1
  O  O332  1  0.45082503  0.73716079  0.86240176  1
  C  C333  1  0.49147150  0.52207575  0.98563759  1
  C  C334  1  0.33833777  0.63942517  0.53602151  1
  O  O335  1  0.25865067  0.72821764  0.60769668  1
  C  C336  1  0.30945764  0.55148844  0.52306408  1
  H  H337  1  0.42672074  0.85046286  0.63918991  1
  H  H338  1  0.29075281  0.90199313  0.77612696  1
  H  H339  1  0.42351607  0.78432060  0.66298715  1
  C  C340  1  0.26650748  0.77304151  0.58730545  1
  C  C341  1  0.27895188  0.95341938  0.63208208  1
  H  H342  1  0.26448025  0.86133820  0.50607455  1
  H  H343  1  0.47263497  0.84306352  0.95457244  1
  C  C344  1  0.27391226  0.81532958  0.66428382  1
  C  C345  1  0.36090279  0.81709353  0.67867716  1
  C  C346  1  0.40708394  0.81718196  0.62306455  1
  H  H347  1  0.34161983  0.84845343  0.64159819  1
  C  C348  1  0.45754258  0.76589257  0.97923013  1
  C  C349  1  0.27044038  0.86116154  0.60706588  1
  H  H350  1  0.40585609  0.81075891  0.52046176  1
  H  H351  1  0.34121120  0.78350387  0.66745689  1
  H  H352  1  0.27190072  0.96297665  0.53282663  1
  C  C353  1  0.29316909  0.99143255  0.71956186  1
  C  C354  1  0.31505676  0.83395163  0.87542619  1
  C  C355  1  0.27620867  0.82209035  0.81086257  1
  O  O356  1  0.35450456  0.83047227  0.82664128  1
  H  H357  1  0.36484624  0.91310770  0.91576667  1
  C  C358  1  0.27967132  0.90375682  0.67690080  1
  H  H359  1  0.41392867  0.83067922  0.93744682  1
  C  C360  1  0.44579317  0.82096704  0.99114491  1
  C  C361  1  0.66427935  0.15536062  0.10030736  1
  C  C362  1  0.63620865  0.13672840  0.19523105  1
  O  O363  1  0.64781360  0.09646599  0.25937055  1
  C  C364  1  0.59660748  0.16207461  0.21413564  1
  C  C365  1  0.55834825  0.14749256  0.29005816  1
  C  C366  1  0.70764634  0.13723603  0.06955249  1
  C  C367  1  0.62124266  0.07405298  0.37245505  1
  H  H368  1  0.58680664  0.07301968  0.34608398  1
  H  H369  1  0.70164837  0.06881889  0.16348793  1
  C  C370  1  0.52539692  0.12818749  0.20412593  1
  H  H371  1  0.52004899  0.13715712  0.10535390  1
  H  H372  1  0.74806029  0.10903981  0.34414956  1
  C  C373  1  0.58338609  0.20842036  0.15420299  1
  H  H374  1  0.55388599  0.23113414  0.16695627  1
  H  H375  1  0.62530814  0.10387243  0.44426526  1
  C  C376  1  0.55509650  0.13998256  0.42642175  1
  C  C377  1  0.63527318  0.02440077  0.42762150  1
  C  C378  1  0.72571961  0.09264259  0.11824914  1
  C  C379  1  0.65079041  0.19778498  0.02023029  1
  C  C380  1  0.61546614  0.21747554  0.06868175  1
  H  H381  1  0.67051351  0.02408462  0.45683787  1
  C  C382  1  0.52419593  0.10883393  0.47535647  1
  H  H383  1  0.57885594  0.15959008  0.49083369  1
  C  C384  1  0.67713158  0.32514096  0.01136990  1
  H  H385  1  0.72605095  0.43731861  0.23513937  1
  H  H386  1  0.60508086  0.33809571  0.41368962  1
  H  H387  1  0.56125913  0.30198125  0.47659963  1
  H  H388  1  0.72691535  0.34773037  0.14937291  1
  H  H389  1  0.50262568  0.34645236  0.16656516  1
  H  H390  1  0.55167952  0.40092786  0.46423603  1
  H  H391  1  0.57238125  0.42866679  0.07061328  1
  C  C392  1  0.71365866  0.35172799  0.05269653  1
  H  H393  1  0.51413314  0.28485721  0.01218671  1
  H  H394  1  0.66287302  0.29667068  0.06910846  1
  C  C395  1  0.73646487  0.47511333  0.25260659  1
  C  C396  1  0.58554290  0.33126138  0.49864958  1
  C  C397  1  0.66710524  0.07708804  0.68559773  1
  C  C398  1  0.64569197  0.03125077  0.72083371  1
  C  C399  1  0.65795650  0.16632874  0.68587215  1
  C  C400  1  0.64288756  0.11932813  0.71818373  1
  H  H401  1  0.61239461  0.11514695  0.77519998  1
  C  C402  1  0.60230336  0.02669618  0.77505561  1
  H  H403  1  0.57437063  0.17506528  0.73687589  1
  C  C404  1  0.70657428  0.07780133  0.60888207  1
  C  C405  1  0.71869523  0.12810954  0.58452559  1
  C  C406  1  0.69305387  0.17081256  0.60279958  1
  C  C407  1  0.59148320  0.20988170  0.75958325  1
  C  C408  1  0.63607246  0.21386505  0.73067563  1
  H  H409  1  0.70456276  0.20469730  0.56337097  1
  O  O410  1  0.72538210  0.03646765  0.58356440  1
  O  O411  1  0.57318021  0.05535878  0.78850382  1
  H  H412  1  0.52450051  0.17084373  0.71574320  1
  C  C413  1  0.52346123  0.22848242  0.86422412  1
  H  H414  1  0.72722232  0.19953436  0.95056581  1
  C  C415  1  0.51164924  0.18103894  0.80803557  1
  H  H416  1  0.52285930  0.09971394  0.57697155  1
  H  H417  1  0.67103732  0.21701162  0.94975859  1
  H  H418  1  0.72624509  0.05971177  0.80579566  1
  H  H419  1  0.61439366  0.01348374  0.50945199  1
  C  C420  1  0.73731748  0.16549447  0.99311424  1
  C  C421  1  0.56663890  0.24433015  0.82115810  1
  C  C422  1  0.50389580  0.24965621  0.97343801  1
  H  H423  1  0.73070165  0.42689462  0.80035931  1
  C  C424  1  0.73426662  0.38778825  0.97697364  1
  C  C425  1  0.58572888  0.37593196  0.91736382  1
  C  C426  1  0.56230191  0.42212448  0.96844047  1
  C  C427  1  0.72376458  0.48882992  0.62852819  1
  H  H428  1  0.66611586  0.46814492  0.52445498  1
  C  C429  1  0.58350108  0.29224069  0.85527000  1
  H  H430  1  0.57043507  0.45459633  0.90760326  1
  C  C431  1  0.62929299  0.29382085  0.82942586  1
  C  C432  1  0.58029092  0.46334871  0.64529480  1
  C  C433  1  0.67961214  0.48208557  0.61473193  1
  H  H434  1  0.67186064  0.37398690  0.71042279  1
  H  H435  1  0.60054890  0.38504315  0.81962783  1
  C  C436  1  0.66245428  0.33030701  0.88343939  1
  C  C437  1  0.68343978  0.36657407  0.80658461  1
  C  C438  1  0.65639682  0.25857027  0.76610237  1
  H  H439  1  0.61443787  0.36861780  0.97686190  1
  H  H440  1  0.60708261  0.31540950  0.57418107  1
  C  C441  1  0.56832900  0.38198325  0.54083698  1
  C  C442  1  0.71567636  0.39643345  0.85440227  1
  C  C443  1  0.53647447  0.47608196  0.62878102  1
  H  H444  1  0.74714454  0.47607682  0.55455332  1
  O  O445  1  0.56083984  0.32928938  0.90271263  1
  H  H446  1  0.54365964  0.38041258  0.62001878  1
  H  H447  1  0.69225558  0.26039926  0.75358239  1
  O  O448  1  0.59861274  0.42308987  0.60130467  1
  H  H449  1  0.52794220  0.41420482  0.97020660  1
  O  O450  1  0.66390846  0.62629819  0.34136940  1
  C  C451  1  0.68649931  0.59190648  0.43733568  1
  C  C452  1  0.67966300  0.63148741  0.22516771  1
  H  H453  1  0.67815314  0.55424946  0.39829418  1
  C  C454  1  0.62575910  0.70478307  0.19660538  1
  C  C455  1  0.54872581  0.71231119  0.21381172  1
  C  C456  1  0.71493196  0.60793854  0.16175314  1
  C  C457  1  0.58346490  0.68052205  0.20535553  1
  C  C458  1  0.66117503  0.67048666  0.15174986  1
  H  H459  1  0.57731697  0.63965149  0.19417107  1
  H  H460  1  0.70831376  0.71860995  0.35115206  1
  C  C461  1  0.71910927  0.51763060  0.19652102  1
  H  H462  1  0.72145752  0.60077572  0.41100296  1
  H  H463  1  0.51505865  0.70058333  0.20241377  1
  C  C464  1  0.73033322  0.61652905  0.03885400  1
  O  O465  1  0.55027596  0.58288585  0.10686791  1
  H  H466  1  0.69098967  0.51271637  0.12533670  1
  C  C467  1  0.51572188  0.57834913  0.15908427  1
  C  C468  1  0.73602060  0.74391167  0.38193019  1
  C  C469  1  0.73886185  0.56490443  0.22506110  1
  H  H470  1  0.56907884  0.69743217  0.47937207  1
  C  C471  1  0.67393837  0.68127803  0.03028971  1
  O  O472  1  0.50614148  0.60085603  0.25637728  1
  H  H473  1  0.50607037  0.50429032  0.40542504  1
  C  C474  1  0.71590876  0.90077097  0.29653104  1
  H  H475  1  0.63277650  0.99411135  0.13910102  1
  C  C476  1  0.65796804  0.96875738  0.18122190  1
  O  O477  1  0.72448201  0.84331590  0.00980576  1
  H  H478  1  0.63353378  0.99422145  0.35653768  1
  H  H479  1  0.72967338  0.78654389  0.19867297  1
  O  O480  1  0.62733152  0.87780081  0.05348179  1
  C  C481  1  0.51961601  0.79613541  0.23839891  1
  H  H482  1  0.73839960  0.87405969  0.33988663  1
  H  H483  1  0.72464550  0.77295278  0.45233044  1
  C  C484  1  0.55713012  0.76271039  0.22958417  1
  H  H485  1  0.66864365  0.77130306  0.20877562  1
  H  H486  1  0.60099362  0.82436332  0.24743373  1
  C  C487  1  0.64423428  0.93137051  0.26615477  1
  H  H488  1  0.71265782  0.99607882  0.08168926  1
  H  H489  1  0.66231044  0.87682130  0.40972449  1
  C  C490  1  0.59847718  0.92853917  0.29491010  1
  O  O491  1  0.58589928  0.89952377  0.38057512  1
  C  C492  1  0.63516858  0.75654073  0.21274094  1
  C  C493  1  0.59889080  0.78363861  0.23870940  1
  O  O494  1  0.52457354  0.84219490  0.24490594  1
  C  C495  1  0.73022357  0.93178316  0.19560981  1
  O  O496  1  0.57312823  0.95616765  0.23238199  1
  Cu  Cu497  1  0.52715958  0.88197980  0.39642559  1
  Cu  Cu498  1  0.53004733  0.93379152  0.10666652  1
  C  C499  1  0.67301798  0.90032058  0.33298615  1
  C  C500  1  0.70192575  0.97066693  0.15295620  1
  Cu  Cu501  1  0.68523606  0.89297721  0.02791664  1
  H  H502  1  0.63572024  0.79185954  0.00263862  1
  H  H503  1  0.57888799  0.64712065  0.78921279  1
  C  C504  1  0.54342802  0.64660304  0.81021241  1
  H  H505  1  0.66318748  0.71210967  0.78050961  1
  C  C506  1  0.54264886  0.55674341  0.73223486  1
  H  H507  1  0.60904113  0.57049803  0.80869427  1
  C  C508  1  0.69476626  0.69738192  0.75631902  1
  C  C509  1  0.58782274  0.54623550  0.75518890  1
  C  C510  1  0.70817645  0.70762050  0.63324524  1
  C  C511  1  0.70778032  0.65417491  0.97372395  1
  H  H512  1  0.65106047  0.53868000  0.90074567  1
  C  C513  1  0.67178489  0.52227762  0.82581409  1
  H  H514  1  0.72968200  0.54781121  0.92403890  1
  C  C515  1  0.71613691  0.52984930  0.84119133  1
  C  C516  1  0.72192501  0.67013866  0.84289792  1
  C  C517  1  0.51982156  0.60329583  0.78454241  1
  C  C518  1  0.51810661  0.52137985  0.66855732  1
  C  C519  1  0.52098756  0.68987949  0.83681763  1
  C  C520  1  0.67804775  0.59585010  0.58075555  1
  H  H521  1  0.70125554  0.57037944  0.64344511  1
  H  H522  1  0.68040833  0.63516925  0.61635089  1
  H  H523  1  0.64395665  0.58307661  0.61023745  1
  C  C524  1  0.66904948  0.73769807  0.58720622  1
  H  H525  1  0.60171989  0.71030884  0.97159547  1
  H  H526  1  0.52479278  0.53049731  0.94265394  1
  C  C527  1  0.74903933  0.69409100  0.57873243  1
  H  H528  1  0.66038670  0.71553010  0.98966656  1
  C  C529  1  0.60385206  0.50202396  0.70856000  1
  C  C530  1  0.65248384  0.50260109  0.71204121  1
  C  C531  1  0.74102516  0.51411144  0.73508627  1
  C  C532  1  0.58794394  0.74236624  0.92477388  1
  C  C533  1  0.59339233  0.72051200  0.52607131  1
  H  H534  1  0.64610811  0.66907722  0.51111725  1
  C  C535  1  0.63552662  0.70462879  0.53875255  1
  C  C536  1  0.54695218  0.73783403  0.85881523  1
  C  C537  1  0.58455116  0.77172612  0.53941350  1
  H  H538  1  0.58764925  0.98807866  0.78766193  1
  H  H539  1  0.66603101  0.86181964  0.81890608  1
  C  C540  1  0.70444261  0.89889994  0.67639813  1
  H  H541  1  0.50142793  0.77683836  0.75606347  1
  C  C542  1  0.65004437  0.94227155  0.78339780  1
  C  C543  1  0.66455591  0.98185815  0.71208948  1
  H  H544  1  0.69115072  0.97798806  0.64233334  1
  C  C545  1  0.60421506  0.78883798  0.94832871  1
  O  O546  1  0.69922513  0.79098600  0.86624208  1
  C  C547  1  0.54364485  0.82875530  0.85306675  1
  C  C548  1  0.66049515  0.78801359  0.59610126  1
  H  H549  1  0.61163255  0.84474695  0.58575787  1
  C  C550  1  0.59566595  0.87862063  0.97788653  1
  O  O551  1  0.57084905  0.91642223  0.97353166  1
  C  C552  1  0.73016782  0.80783557  0.92197173  1
  C  C553  1  0.61860412  0.80297102  0.57333522  1
  C  C554  1  0.52887784  0.78249465  0.81624178  1
  C  C555  1  0.67142762  0.89544440  0.75748314  1
  H  H556  1  0.63085949  0.94874900  0.86799323  1
  C  C557  1  0.58194695  0.83358347  0.92305876  1
  H  H558  1  0.52451229  0.86230764  0.82588199  1
  H  H559  1  0.68626751  0.81385736  0.63041078  1
  C  C560  1  0.74007973  0.89246236  0.59731012  1
  O  O561  1  0.53192503  0.83417332  0.51352696  1
  C  C562  1  0.54145697  0.78968533  0.50985010  1
  O  O563  1  0.50984749  0.75803642  0.50421316  1
  C  C564  1  0.95396029  0.15648151  0.41154184  1
  C  C565  1  0.96958677  0.18303835  0.30865951  1
  H  H566  1  0.95072569  0.19111041  0.22354101  1
  Cu  Cu567  1  0.91290124  0.05650322  0.18152578  1
  O  O568  1  0.85838936  0.06505780  0.11452691  1
  H  H569  1  0.78124727  0.04520570  0.15526398  1
  C  C570  1  0.79700051  0.11093170  0.05304669  1
  C  C571  1  0.76853800  0.07819878  0.11179956  1
  C  C572  1  0.80165289  0.21717369  0.36418705  1
  O  O573  1  0.96958101  0.04800403  0.21373760  1
  H  H574  1  0.92145053  0.14245730  0.41448364  1
  C  C575  1  0.84454721  0.10341235  0.04947714  1
  C  C576  1  0.80065810  0.22471219  0.49460786  1
  C  C577  1  0.78816212  0.17187839  0.30734277  1
  H  H578  1  0.78889974  0.16837560  0.20164129  1
  C  C579  1  0.76408973  0.14147356  0.38441941  1
  O  O580  1  0.97904542  0.01491035  0.39903855  1
  C  C581  1  0.98761174  0.01599344  0.28217436  1
  H  H582  1  0.77596446  0.06934875  0.47940917  1
  H  H583  1  0.91062124  0.22131223  0.43544954  1
  O  O584  1  0.82300282  0.24676340  0.16618259  1
  Cu  Cu585  1  0.80166303  0.35447743  0.23049248  1
  C  C586  1  0.99058383  0.27667273  0.16060695  1
  C  C587  1  0.94777919  0.28302405  0.35865750  1
  H  H588  1  0.92068930  0.33019682  0.06021107  1
  O  O589  1  0.79322569  0.40567663  0.11844297  1
  H  H590  1  0.88189299  0.26096822  0.32295247  1
  H  H591  1  0.94992178  0.32228527  0.39024009  1
  C  C592  1  0.77272482  0.48080409  0.33672523  1
  H  H593  1  0.89411026  0.28696355  0.47357711  1
  O  O594  1  0.95352195  0.29081006  0.20913411  1
  C  C595  1  0.90525709  0.25979472  0.40146730  1
  C  C596  1  0.79202726  0.43749828  0.39187475  1
  C  C597  1  0.81770053  0.25645531  0.27727314  1
  O  O598  1  0.82551600  0.44360582  0.45875111  1
  O  O599  1  0.77869690  0.39375027  0.36886472  1
  O  O600  1  0.82300248  0.30165540  0.32263407  1
  C  C601  1  0.77359773  0.41302012  0.01369234  1
  H  H602  1  0.97712069  0.26651196  0.40929897  1
  O  O603  1  0.93015256  0.09417496  0.62296022  1
  C  C604  1  0.96501881  0.11386113  0.62402163  1
  C  C605  1  0.77763391  0.19200153  0.57739419  1
  H  H606  1  0.76895787  0.20330804  0.67594293  1
  H  H607  1  0.97056551  0.21819371  0.70999874  1
  H  H608  1  0.80639107  0.18019730  0.94988770  1
  H  H609  1  0.77740938  0.08510727  0.74440486  1
  C  C610  1  0.77914908  0.01070666  0.85464387  1
  H  H611  1  0.81151409  0.01660567  0.90436402  1
  H  H612  1  0.88944813  0.00551198  0.67362937  1
  H  H613  1  0.89595471  0.23514327  0.73792658  1
  C  C614  1  0.78076702  0.15504969  0.99797294  1
  C  C615  1  0.76068039  0.06284549  0.82663773  1
  H  H616  1  0.76507785  0.08735169  0.90716242  1
  O  O617  1  0.99117013  0.10481945  0.71676203  1
  H  H618  1  0.79650823  0.03116982  0.60150189  1
  C  C619  1  0.77276432  0.03358619  0.52284105  1
  C  C620  1  0.75718021  0.15104245  0.51782779  1
  O  O621  1  0.86854553  0.13208001  0.99933602  1
  C  C622  1  0.98106676  0.14661980  0.51904519  1
  H  H623  1  0.99351378  0.36424333  0.53581398  1
  O  O624  1  0.78789085  0.44586626  0.93918068  1
  C  C625  1  0.98704913  0.29168029  0.62689761  1
  C  C626  1  0.94530036  0.40581051  0.81654041  1
  O  O627  1  0.83141322  0.31245105  0.75308329  1
  Cu  Cu628  1  0.82883868  0.43798348  0.64584848  1
  C  C629  1  0.95904434  0.25592728  0.68586756  1
  H  H630  1  0.91084890  0.38303845  0.55879080  1
  C  C631  1  0.94018486  0.34596738  0.98314108  1
  C  C632  1  0.99036679  0.39660911  0.81228795  1
  C  C633  1  0.97141277  0.33785865  0.58271958  1
  C  C634  1  0.91595536  0.26602591  0.69566827  1
  H  H635  1  0.88602867  0.39033122  0.92186262  1
  C  C636  1  0.90199137  0.31294016  0.65440219  1
  C  C637  1  0.98359860  0.33074823  0.96840024  1
  C  C638  1  0.92680128  0.34932093  0.59089040  1
  C  C639  1  0.85604030  0.33070267  0.67893865  1
  O  O640  1  0.84305966  0.37209291  0.61956022  1
  C  C641  1  0.92022676  0.38122875  0.90851972  1
  O  O642  1  0.94092651  0.45808931  0.63853130  1
  O  O643  1  0.88068933  0.44227541  0.74906144  1
  C  C644  1  0.92124556  0.43738922  0.72672785  1
  H  H645  1  0.81285278  0.25808155  0.53072229  1
  C  C646  1  0.93072147  0.68062667  0.25148126  1
  H  H647  1  0.96554505  0.68883547  0.26344714  1
  C  C648  1  0.91923497  0.63583867  0.19990670  1
  H  H649  1  0.94280700  0.60867251  0.16883930  1
  C  C650  1  0.87506073  0.62560281  0.17184375  1
  C  C651  1  0.85160898  0.70401430  0.26513359  1
  C  C652  1  0.86863664  0.57788689  0.10489329  1
  H  H653  1  0.88554240  0.63186253  0.37515894  1
  C  C654  1  0.84250803  0.65897754  0.20901321  1
  C  C655  1  0.89613328  0.71598544  0.27950144  1
  H  H656  1  0.80511385  0.64990510  0.20560928  1
  H  H657  1  0.81441631  0.66028512  0.41992765  1
  O  O658  1  0.95359570  0.57793758  0.42812001  1
  O  O659  1  0.89771371  0.55063339  0.08568605  1
  H  H660  1  0.81956918  0.53189453  0.43244424  1
  C  C661  1  0.79093250  0.52880549  0.36766907  1
  H  H662  1  0.79387311  0.60552451  0.31266347  1
  H  H663  1  0.82384612  0.72650111  0.30195738  1
  O  O664  1  0.82948642  0.56470018  0.06461861  1
  H  H665  1  0.95705045  0.73621122  0.09265732  1
  C  C666  1  0.87366392  0.62766889  0.47568841  1
  C  C667  1  0.77576359  0.57095779  0.30845781  1
  H  H668  1  0.95026067  0.68173188  0.44667496  1
  O  O669  1  0.76342413  0.70852916  0.46785456  1
  Cu  Cu670  1  0.99930224  0.53463297  0.40204509  1
  H  H671  1  0.76058972  0.59678631  0.00558069  1
  H  H672  1  0.76588353  0.73648093  0.19619720  1
  O  O673  1  0.89508808  0.99109085  0.24243589  1
  H  H674  1  0.95942280  0.79214904  0.01258118  1
  H  H675  1  0.77103339  0.95583967  0.48136933  1
  C  C676  1  0.97025422  0.77312830  0.09805367  1
  C  C677  1  0.90476408  0.76996153  0.30640144  1
  C  C678  1  0.88414314  0.98688707  0.36088801  1
  H  H679  1  0.79859872  0.83740327  0.05567618  1
  H  H680  1  0.76100199  0.98832864  0.34388029  1
  H  H681  1  0.86929668  0.80526880  0.04985648  1
  C  C682  1  0.97072105  0.86774629  0.46041594  1
  C  C683  1  0.87652673  0.98453612  0.47460570  1
  C  C684  1  0.85971088  0.90616337  0.05990361  1
  H  H685  1  0.78246868  0.79075751  0.28159765  1
  H  H686  1  0.89399438  0.89915001  0.02240279  1
  C  C687  1  0.84484488  0.88588137  0.17703234  1
  H  H688  1  0.95527420  0.78937525  0.18772144  1
  H  H689  1  0.81688393  0.98749060  0.39867319  1
  H  H690  1  0.84763851  0.78274437  0.19200621  1
  C  C691  1  0.87690063  0.85103214  0.24503865  1
  C  C692  1  0.94143603  0.83820549  0.38071874  1
  H  H693  1  0.79255364  0.88133878  0.31560243  1
  H  H694  1  0.91580744  0.91104298  0.30383771  1
  C  C695  1  0.77492366  0.92645770  0.14927450  1
  C  C696  1  0.87255559  0.79867719  0.24780415  1
  C  C697  1  0.93884998  0.78675852  0.38718740  1
  C  C698  1  0.91307244  0.86981567  0.30942832  1
  C  C699  1  0.78774010  0.94769858  0.03263745  1
  C  C700  1  0.80260585  0.89522887  0.22418852  1
  O  O701  1  0.96566125  0.76113719  0.46227574  1
  C  C702  1  0.78133319  0.99049711  0.43315798  1
  C  C703  1  0.75429447  0.76674116  0.25991848  1
  H  H704  1  0.83602452  0.77169025  0.43292557  1
  H  H705  1  0.92562722  0.93002325  0.46067369  1
  C  C706  1  0.81730452  0.64474573  0.63170520  1
  C  C707  1  0.77331555  0.66397836  0.66266376  1
  H  H708  1  0.77964218  0.62466953  0.84003391  1
  C  C709  1  0.88286858  0.60042768  0.70192480  1
  H  H710  1  0.83199096  0.62225295  0.82701326  1
  C  C711  1  0.84393733  0.62482916  0.72856913  1
  C  C712  1  0.97200745  0.69345913  0.85111875  1
  H  H713  1  0.90211304  0.57816698  0.77173144  1
  C  C714  1  0.96456132  0.64502448  0.90905407  1
  C  C715  1  0.89826274  0.60519446  0.57378933  1
  O  O716  1  0.95962183  0.56092263  0.63473560  1
  O  O717  1  0.79904229  0.53892076  0.85148341  1
  H  H718  1  0.83759227  0.71662694  0.70575085  1
  C  C719  1  0.88533678  0.67711703  0.94259290  1
  C  C720  1  0.92095106  0.64767552  0.94026006  1
  C  C721  1  0.93803998  0.58110726  0.54035776  1
  H  H722  1  0.98884701  0.61531137  0.93668679  1
  C  C723  1  0.89980948  0.72359348  0.88755261  1
  C  C724  1  0.82903098  0.74073502  0.78452282  1
  H  H725  1  0.90571800  0.68460085  0.66907874  1
  C  C726  1  0.90879718  0.71621190  0.60184593  1
  H  H727  1  0.98049101  0.70798528  0.58114480  1
  C  C728  1  0.94183815  0.73413653  0.84636252  1
  C  C729  1  0.78863716  0.51717222  0.74841726  1
  C  C730  1  0.95040203  0.71268280  0.51629120  1
  H  H731  1  0.85478293  0.66771522  0.99570787  1
  C  C732  1  0.75866548  0.65045775  0.78457887  1
  Cu  Cu733  1  0.99086723  0.50430414  0.63663854  1
  H  H734  1  0.75989444  0.74904986  0.73481399  1
  O  O735  1  0.81545908  0.50356411  0.66699003  1
  H  H736  1  0.87880314  0.71615911  0.54137262  1
  C  C737  1  0.83258685  0.64477559  0.50261443  1
  Cu  Cu738  1  0.81069129  0.50767756  0.99551513  1
  H  H739  1  0.91049549  0.75113906  0.65836715  1
  C  C740  1  0.85895107  0.75436861  0.88588545  1
  C  C741  1  0.78744250  0.75954361  0.79881433  1
  C  C742  1  0.86947207  0.98300436  0.60663824  1
  C  C743  1  0.85660963  0.81965002  0.58164036  1
  C  C744  1  0.95522868  0.91499220  0.50252208  1
  H  H745  1  0.79077060  0.79727504  0.53888707  1
  C  C746  1  0.77659423  0.79390728  0.89434756  1
  O  O747  1  0.92673893  0.99155750  0.82068566  1
  C  C748  1  0.82655450  0.79577154  0.51740525  1
  C  C749  1  0.84754870  0.79219568  0.97238595  1
  C  C750  1  0.89949636  0.97877661  0.89087109  1
  H  H751  1  0.82408399  0.92550782  0.57023586  1
  C  C752  1  0.80694040  0.81383503  0.97902814  1
  C  C753  1  0.93351571  0.87451599  0.78479879  1
  C  C754  1  0.97989432  0.94165840  0.59148604  1
  H  H755  1  0.88909590  0.80710461  0.76018905  1
  C  C756  1  0.83954429  0.94670638  0.64359775  1
  H  H757  1  0.97141789  0.97747990  0.63164773  1
  H  H758  1  0.91223556  0.81598986  0.91726990  1
  H  H759  1  0.78176760  0.98582137  0.77225012  1
  H  H760  1  0.89032916  0.82110500  0.54495216  1
  H  H761  1  0.90437992  0.90173318  0.78524590  1
  H  H762  1  0.95094034  0.87556896  0.68691583  1
  C  C763  1  0.91968051  0.82017945  0.81193887  1
  C  C764  1  0.83254837  0.93651209  0.77326265  1
  H  H765  1  0.80640447  0.90888082  0.79820108  1
  C  C766  1  0.85481637  0.95540784  0.87930699  1
  O  O767  1  0.95325137  0.77753141  0.79780375  1
  H  H768  1  0.95688013  0.88597637  0.86304771  1
  H  H769  1  0.85043569  0.84345024  0.66475235  1
  O  O770  1  0.77003475  0.88417843  0.52693694  1
  C  C771  1  0.83105837  0.93608109  0.99332294  1
  H  H772  1  0.91298537  0.98706225  0.98915346  1
  O  O773  1  0.76363464  0.97838831  0.96426811  1
