# generated using pymatgen
data_CuH15C22O5
_symmetry_space_group_name_H-M   'P 1'
_cell_length_a   31.97929560
_cell_length_b   24.81879389
_cell_length_c   11.60684589
_cell_angle_alpha   90.00000000
_cell_angle_beta   90.00000000
_cell_angle_gamma   90.00000000
_symmetry_Int_Tables_number   1
_chemical_formula_structural   CuH15C22O5
_chemical_formula_sum   'Cu18 H270 C396 O90'
_cell_volume   9212.20903189
_cell_formula_units_Z   18
loop_
 _symmetry_equiv_pos_site_id
 _symmetry_equiv_pos_as_xyz
  1  'x, y, z'
loop_
 _atom_site_type_symbol
 _atom_site_label
 _atom_site_symmetry_multiplicity
 _atom_site_fract_x
 _atom_site_fract_y
 _atom_site_fract_z
 _atom_site_occupancy
  C  C0  1  0.20273225  0.08508096  0.10894395  1
  C  C1  1  0.03087771  0.47733932  0.42710196  1
  C  C2  1  0.17907884  0.13250825  0.12899030  1
  C  C3  1  0.07724440  0.46379399  0.44159260  1
  O  O4  1  0.09239270  0.10690145  0.30683912  1
  H  H5  1  0.05292657  0.35487671  0.18581713  1
  C  C6  1  0.06321553  0.23230894  0.41798810  1
  C  C7  1  0.06862254  0.46095424  0.10971625  1
  H  H8  1  0.20165402  0.38534313  0.07606231  1
  O  O9  1  0.23854197  0.34444033  0.24105785  1
  C  C10  1  0.23331458  0.19381028  0.22024004  1
  C  C11  1  0.16301080  0.43016401  0.49108073  1
  H  H12  1  0.24127521  0.05145046  0.33430152  1
  C  C13  1  0.19211630  0.18660029  0.17659880  1
  C  C14  1  0.14213123  0.03962924  0.02306298  1
  O  O15  1  0.02802268  0.13983932  0.35467131  1
  C  C16  1  0.22563861  0.29473104  0.22956866  1
  H  H17  1  0.14900285  0.46116994  0.04626777  1
  C  C18  1  0.11954400  0.08627651  0.03806667  1
  C  C19  1  0.09245183  0.19399607  0.37804963  1
  H  H20  1  0.15384124  0.16071939  0.32494940  1
  C  C21  1  0.12597910  0.28688097  0.45388164  1
  C  C22  1  0.07220867  0.14420300  0.33946570  1
  H  H23  1  0.13861776  0.22832608  0.11625667  1
  H  H24  1  0.09510863  0.47340637  0.35978391  1
  C  C25  1  0.13691086  0.19748947  0.36260997  1
  H  H26  1  0.02594847  0.49587529  0.34227159  1
  C  C27  1  0.15627561  0.32882407  0.14590860  1
  H  H28  1  0.11375919  0.16285626  0.13071877  1
  C  C29  1  0.09819040  0.41302601  0.11358689  1
  C  C30  1  0.13559736  0.13128484  0.10544352  1
  C  C31  1  0.08395395  0.36103835  0.15148972  1
  C  C32  1  0.16865059  0.23336620  0.15743801  1
  C  C33  1  0.16888717  0.38055216  0.10303136  1
  H  H34  1  0.18678067  0.25524697  0.38986647  1
  H  H35  1  0.02945398  0.22391124  0.43388503  1
  C  C36  1  0.18507183  0.28457052  0.17948845  1
  C  C37  1  0.11270429  0.32018845  0.17155467  1
  H  H38  1  0.10494498  0.28095625  0.21288151  1
  H  H39  1  0.02453475  0.10043497  0.34753690  1
  C  C40  1  0.18481947  0.03867433  0.06236751  1
  O  O41  1  0.02747154  0.00756536  0.36441488  1
  C  C42  1  0.15293419  0.24519808  0.40380039  1
  C  C43  1  0.14057856  0.42400767  0.08951173  1
  O  O44  1  0.02415594  0.45030911  0.13835152  1
  C  C45  1  0.24789778  0.24522485  0.24718910  1
  C  C46  1  0.13139460  0.39168649  0.47081570  1
  H  H47  1  0.23601667  0.08167655  0.13176924  1
  H  H48  1  0.02788017  0.41084733  0.15010774  1
  O  O49  1  0.09328329  0.40422544  0.44340859  1
  C  C50  1  0.14812290  0.33715696  0.47981710  1
  C  C51  1  0.16185093  0.49158833  0.48206513  1
  C  C52  1  0.08156822  0.27837122  0.46338876  1
  H  H53  1  0.12389604  0.03332840  0.48857547  1
  H  H54  1  0.01136928  0.44061934  0.42434309  1
  H  H55  1  0.09322844  0.00730655  0.26763485  1
  C  C56  1  0.11415438  0.15293541  0.69402864  1
  H  H57  1  0.14829729  0.16343947  0.69526406  1
  C  C58  1  0.08221726  0.19315057  0.69216526  1
  C  C59  1  0.10099100  0.09999767  0.68642473  1
  C  C60  1  0.13881145  0.06370966  0.65850654  1
  C  C61  1  0.16590189  0.06273207  0.75748780  1
  H  H62  1  0.16077485  0.08961365  0.83510757  1
  C  C63  1  0.05905597  0.07733857  0.69034251  1
  C  C64  1  0.04146733  0.17588950  0.66783492  1
  H  H65  1  0.08154631  0.45379270  0.72956963  1
  H  H66  1  0.15808431  0.23052740  0.76122768  1
  C  C67  1  0.01692680  0.39626998  0.65802489  1
  C  C68  1  0.20242903  0.41788707  0.53033847  1
  H  H69  1  0.03255626  0.28378203  0.70879386  1
  O  O70  1  0.04894097  0.02659065  0.70407372  1
  C  C71  1  0.03743154  0.37880441  0.76042603  1
  C  C72  1  0.09562464  0.25017328  0.71707306  1
  C  C73  1  0.03680095  0.18474952  0.93095684  1
  H  H74  1  0.22342424  0.45294096  0.54404016  1
  C  C75  1  0.21666525  0.36427122  0.54653468  1
  H  H76  1  0.04682054  0.37901521  0.94858615  1
  C  C77  1  0.10103422  0.45621845  0.81019287  1
  C  C78  1  0.06568531  0.29303724  0.72156651  1
  H  H79  1  0.09319009  0.48722250  0.51283525  1
  C  C80  1  0.20515447  0.29204636  0.93200722  1
  C  C81  1  0.02756245  0.39516074  0.87552550  1
  H  H82  1  0.01563888  0.20469472  0.65705949  1
  H  H83  1  0.03392894  0.22663592  0.89391453  1
  C  C84  1  0.00249082  0.09399255  0.96360704  1
  H  H85  1  0.10411700  0.18730971  0.96314509  1
  C  C86  1  0.20972820  0.37173635  0.79975358  1
  H  H87  1  0.19713436  0.39690170  0.73124087  1
  C  C88  1  0.24195062  0.30794711  0.97984517  1
  C  C89  1  0.07547010  0.16132292  0.95659650  1
  C  C90  1  0.18925288  0.32419415  0.83986525  1
  C  C91  1  0.13533996  0.26271610  0.76073029  1
  C  C92  1  0.03096934  0.12044597  0.65892007  1
  H  H93  1  0.08261058  0.44030654  0.88732173  1
  C  C94  1  0.07675539  0.34352869  0.75693484  1
  H  H95  1  0.02870043  0.38408734  0.56978003  1
  C  C96  1  0.20138126  0.02792711  0.75666084  1
  C  C97  1  0.14685752  0.31528108  0.78444951  1
  C  C98  1  0.12003053  0.36069716  0.77391497  1
  C  C99  1  0.14594752  0.03354111  0.55999509  1
  O  O100  1  0.13196283  0.40996039  0.79937817  1
  H  H101  1  0.22554797  0.02831118  0.82271740  1
  H  H102  1  0.18892979  0.25574578  0.96467634  1
  H  H103  1  0.16565517  0.49265761  0.66870192  1
  H  H104  1  0.10806544  0.01888383  0.77699163  1
  H  H105  1  0.19614577  0.28164341  0.53526901  1
  C  C106  1  0.18919115  0.32335709  0.51986357  1
  C  C107  1  0.00188719  0.15011961  0.94699270  1
  C  C108  1  0.07758177  0.10416577  0.98179487  1
  C  C109  1  0.04188846  0.06965339  0.96810604  1
  C  C110  1  0.24926662  0.38410000  0.84663820  1
  H  H111  1  0.04768631  0.02700443  0.96965379  1
  H  H112  1  0.06304331  0.30918529  0.50694526  1
  H  H113  1  0.19555156  0.60129797  0.32169787  1
  C  C114  1  0.16580151  0.52229458  0.37957159  1
  H  H115  1  0.06558947  0.85679644  0.44688800  1
  C  C116  1  0.03384385  0.96274522  0.39577904  1
  C  C117  1  0.20993823  0.99254459  0.03330095  1
  H  H118  1  0.18539110  0.97061443  0.48873789  1
  C  C119  1  0.19709332  0.76971206  0.10764653  1
  C  C120  1  0.18452051  0.57353221  0.39201624  1
  C  C121  1  0.07801853  0.88671700  0.00600377  1
  H  H122  1  0.05743013  0.68269694  0.02994330  1
  O  O123  1  0.21900629  0.67403018  0.41445876  1
  H  H124  1  0.21084069  0.58192486  0.15607042  1
  C  C125  1  0.20813853  0.61729699  0.09774413  1
  C  C126  1  0.23732647  0.78919671  0.09812666  1
  H  H127  1  0.12808942  0.70825222  0.12231607  1
  H  H128  1  0.12168992  0.75332845  0.00057917  1
  C  C129  1  0.13615318  0.94018421  0.22496151  1
  H  H130  1  0.15904472  0.96145985  0.16973745  1
  C  C131  1  0.10149605  0.96410238  0.28071857  1
  H  H132  1  0.22069533  0.91443541  0.22152293  1
  C  C133  1  0.06098583  0.72217386  0.06707817  1
  C  C134  1  0.08284206  0.87990721  0.37978754  1
  C  C135  1  0.17565918  0.84858828  0.19551547  1
  C  C136  1  0.19961209  0.66770086  0.14333506  1
  C  C137  1  0.21498362  0.87443960  0.19165532  1
  C  C138  1  0.16171275  0.79699360  0.15980738  1
  C  C139  1  0.12061586  0.85781608  0.34074709  1
  O  O140  1  0.23217738  0.52285432  0.00635788  1
  C  C141  1  0.07361960  0.93333993  0.34867715  1
  H  H142  1  0.19831558  0.67786539  0.23894240  1
  H  H143  1  0.12980289  0.81604094  0.35890719  1
  C  C144  1  0.14505090  0.88545538  0.25798507  1
  O  O145  1  0.12070441  0.78560364  0.16422261  1
  O  O146  1  0.00840891  0.93759757  0.45793879  1
  C  C147  1  0.10714633  0.74056229  0.08170300  1
  C  C148  1  0.04517873  0.91909355  0.03026380  1
  C  C149  1  0.19349411  0.71097297  0.06111984  1
  H  H150  1  0.10242579  0.87760325  0.07130305  1
  H  H151  1  0.01991389  0.50450399  0.49563327  1
  C  C152  1  0.24597546  0.84483058  0.13212800  1
  O  O153  1  0.07629380  0.50662557  0.08736692  1
  H  H154  1  0.04640992  0.75004695  0.00273663  1
  H  H155  1  0.15573949  0.50731231  0.29319089  1
  H  H156  1  0.04320462  0.72386816  0.15041036  1
  H  H157  1  0.18633961  0.73770322  0.88183181  1
  C  C158  1  0.16954722  0.51690427  0.59306870  1
  C  C159  1  0.11879858  0.51390987  0.83460233  1
  C  C160  1  0.18406886  0.56936712  0.60546839  1
  C  C161  1  0.20867823  0.61012463  0.97688973  1
  H  H162  1  0.06279463  0.97131753  0.81790291  1
  O  O163  1  0.24837642  0.93837181  0.55244456  1
  O  O164  1  0.23793012  0.66524546  0.59039180  1
  H  H165  1  0.13144942  0.53421116  0.75550582  1
  C  C166  1  0.21993804  0.55691340  0.93481223  1
  C  C167  1  0.10283063  0.94176641  0.68160362  1
  H  H168  1  0.19101207  0.58769153  0.68775717  1
  H  H169  1  0.20322434  0.64664651  0.79694057  1
  C  C170  1  0.23233950  0.80120577  0.70471508  1
  H  H171  1  0.10631508  0.95180048  0.58952166  1
  C  C172  1  0.15227083  0.84750003  0.91523278  1
  C  C173  1  0.24134798  0.96020627  0.65084944  1
  O  O174  1  0.03156819  0.84954079  0.71933805  1
  C  C175  1  0.00578905  0.90499728  0.87023550  1
  H  H176  1  0.21946029  0.83657472  0.92057603  1
  H  H177  1  0.15815718  0.76714320  0.62729146  1
  O  O178  1  0.23595098  0.77999728  0.60608099  1
  C  C179  1  0.19146902  0.70357367  0.93789262  1
  C  C180  1  0.19201991  0.80736410  0.75556905  1
  C  C181  1  0.11693325  0.80559998  0.75212152  1
  C  C182  1  0.03727757  0.87144018  0.82217920  1
  H  H183  1  0.17838955  0.92963433  0.92323686  1
  C  C184  1  0.07445715  0.86698591  0.88732274  1
  H  H185  1  0.08768407  0.79353650  0.71413181  1
  C  C186  1  0.20386224  0.99436638  0.65605957  1
  C  C187  1  0.15437971  0.78985779  0.70643284  1
  C  C188  1  0.20086230  0.65237973  0.89525849  1
  C  C189  1  0.11347252  0.84143969  0.85061507  1
  C  C190  1  0.18962450  0.83113443  0.86952609  1
  O  O191  1  0.14091948  0.98952689  0.95871826  1
  C  C192  1  0.08380348  0.98929683  0.74770885  1
  H  H193  1  0.09512941  0.54275988  0.87690389  1
  H  H194  1  0.13577488  0.93251272  0.70885133  1
  H  H195  1  0.08442283  0.90471828  0.68872802  1
  O  O196  1  0.22541640  0.55222273  0.82629868  1
  H  H197  1  0.14457500  0.51018807  0.89888132  1
  C  C198  1  0.17737869  0.96717953  0.97032876  1
  C  C199  1  0.17826123  0.99638599  0.56170802  1
  C  C200  1  0.19580921  0.59384465  0.50157578  1
  C  C201  1  0.21834371  0.64745021  0.50781088  1
  C  C202  1  0.00829639  0.93551731  0.98009222  1
  H  H203  1  0.15579593  0.86387263  0.99923172  1
  C  C204  1  0.41213374  0.07482545  0.17141179  1
  C  C205  1  0.45291013  0.43081974  0.13504483  1
  C  C206  1  0.43145637  0.13432005  0.15562153  1
  C  C207  1  0.28076607  0.36118853  0.29061084  1
  C  C208  1  0.27349788  0.00434190  0.13890954  1
  O  O209  1  0.41558440  0.16679628  0.08529016  1
  H  H210  1  0.44991388  0.05936511  0.32137998  1
  O  O211  1  0.43279109  0.43373698  0.44705002  1
  C  C212  1  0.29436771  0.08504655  0.41222739  1
  H  H213  1  0.33106868  0.03017634  0.21712444  1
  H  H214  1  0.27749067  0.44895537  0.28558629  1
  H  H215  1  0.30122748  0.32978603  0.24744751  1
  H  H216  1  0.37951941  0.08411091  0.00602040  1
  C  C217  1  0.38701323  0.05779044  0.07852852  1
  H  H218  1  0.39867811  0.25649487  0.20408586  1
  H  H219  1  0.32727588  0.23087088  0.11730091  1
  C  C220  1  0.36909834  0.25561549  0.25319141  1
  C  C221  1  0.30052645  0.41630289  0.27354070  1
  H  H222  1  0.25353315  0.15777100  0.23518391  1
  C  C223  1  0.29885070  0.25456710  0.40982916  1
  C  C224  1  0.33806318  0.26808559  0.44567343  1
  H  H225  1  0.42373810  0.41530976  0.09898700  1
  C  C226  1  0.37172398  0.27187282  0.36744909  1
  C  C227  1  0.32893381  0.23941499  0.21005953  1
  O  O228  1  0.38998277  0.43525851  0.29525018  1
  C  C229  1  0.29656536  0.02907965  0.22481562  1
  C  C230  1  0.42444912  0.43757092  0.33571212  1
  C  C231  1  0.29465323  0.24494590  0.28831567  1
  H  H232  1  0.28093939  0.34740487  0.38321722  1
  C  C233  1  0.45967012  0.44082158  0.25316836  1
  O  O234  1  0.45495881  0.14816858  0.23091356  1
  H  H235  1  0.32894681  0.42452394  0.32406988  1
  C  C236  1  0.41345205  0.29034894  0.40656888  1
  H  H237  1  0.31318044  0.41629169  0.18265059  1
  C  C238  1  0.42527532  0.04451014  0.26051793  1
  C  C239  1  0.27591279  0.05490747  0.32346872  1
  O  O240  1  0.32326186  0.33955858  0.05412580  1
  O  O241  1  0.44410872  0.29317428  0.34610727  1
  H  H242  1  0.33284369  0.44412446  0.48593511  1
  H  H243  1  0.25326858  0.28524480  0.05520109  1
  H  H244  1  0.27166226  0.25469370  0.46365326  1
  C  C245  1  0.37138606  0.00797084  0.06594140  1
  C  C246  1  0.49854817  0.45003921  0.30731562  1
  C  C247  1  0.48713061  0.44096390  0.06354017  1
  O  O248  1  0.31229427  0.10869020  0.48232409  1
  C  C249  1  0.48833567  0.08919598  0.46351887  1
  H  H250  1  0.45504550  0.09791658  0.45709347  1
  C  C251  1  0.31397815  0.14270207  0.82936216  1
  C  C252  1  0.33488552  0.14470631  0.72309826  1
  H  H253  1  0.47139402  0.05877020  0.76055298  1
  C  C254  1  0.33554818  0.19408251  0.66848254  1
  H  H255  1  0.26574498  0.26528590  0.83263084  1
  C  C256  1  0.45892623  0.02733664  0.70807518  1
  C  C257  1  0.35480789  0.43753130  0.65902424  1
  O  O258  1  0.46931816  0.38715622  0.65220031  1
  C  C259  1  0.47388570  0.01757592  0.59152546  1
  H  H260  1  0.35200018  0.10993578  0.68372408  1
  O  O261  1  0.33751449  0.04920685  0.84506869  1
  H  H262  1  0.35104850  0.19587958  0.58151688  1
  C  C263  1  0.31670369  0.08887032  0.88973806  1
  H  H264  1  0.28431602  0.44149735  0.56713029  1
  C  C265  1  0.48202386  0.34912364  0.72030978  1
  O  O266  1  0.31868433  0.41741822  0.96858928  1
  H  H267  1  0.27283029  0.17610735  0.95204429  1
  C  C268  1  0.28633471  0.23144322  0.81315830  1
  H  H269  1  0.38713001  0.24649826  0.74510789  1
  H  H270  1  0.45730272  0.25632967  0.81086293  1
  H  H271  1  0.48622291  0.43501069  0.96953046  1
  C  C272  1  0.31012844  0.29764003  0.68622022  1
  H  H273  1  0.43231196  0.23950026  0.94449957  1
  C  C274  1  0.26240636  0.35871932  0.58216191  1
  C  C275  1  0.28954662  0.18380609  0.87224556  1
  H  H276  1  0.40763438  0.00906696  0.82821392  1
  H  H277  1  0.36316431  0.27665863  0.86763000  1
  C  C278  1  0.49407572  0.29472975  0.66099654  1
  C  C279  1  0.43339286  0.27217040  0.87284208  1
  O  O280  1  0.30266075  0.09095069  0.98441231  1
  O  O281  1  0.37774677  0.33586204  0.75709595  1
  C  C282  1  0.34095083  0.33984027  0.70707999  1
  C  C283  1  0.30549443  0.36857620  0.99041982  1
  H  H284  1  0.38164783  0.43458317  0.83767562  1
  C  C285  1  0.32793709  0.38795238  0.65621570  1
  C  C286  1  0.27409363  0.30604941  0.62063486  1
  C  C287  1  0.29162541  0.40033962  0.59396783  1
  C  C288  1  0.31597627  0.23922561  0.72152575  1
  C  C289  1  0.37908556  0.45761093  0.75602352  1
  Cu  Cu290  1  0.42385562  0.38080722  0.54639386  1
  C  C291  1  0.39172500  0.27908369  0.81073524  1
  H  H292  1  0.44436854  0.31407590  0.90716967  1
  H  H293  1  0.34385439  0.28507666  0.53414493  1
  C  C294  1  0.35340164  0.46361695  0.55134570  1
  H  H295  1  0.25115162  0.27440631  0.61361299  1
  H  H296  1  0.49694783  0.17225384  0.74353722  1
  Cu  Cu297  1  0.27938374  0.47025007  0.98124713  1
  H  H298  1  0.26657095  0.41879827  0.81224575  1
  C  C299  1  0.26286174  0.35411748  0.93964945  1
  C  C300  1  0.49867954  0.27143615  0.57223244  1
  O  O301  1  0.49723208  0.35735328  0.80928991  1
  O  O302  1  0.41453310  0.31027195  0.51246717  1
  H  H303  1  0.47664377  0.24904959  0.51424769  1
  O  O304  1  0.42002875  0.99495718  0.30271713  1
  C  C305  1  0.45311892  0.55341128  0.08167957  1
  H  H306  1  0.46671856  0.96652724  0.43893597  1
  H  H307  1  0.46003203  0.75316440  0.21454375  1
  H  H308  1  0.26092490  0.75999863  0.05916299  1
  H  H309  1  0.26876608  0.94469618  0.00317614  1
  Cu  Cu310  1  0.43850941  0.67472313  0.47427747  1
  H  H311  1  0.46730374  0.54407715  0.16481302  1
  C  C312  1  0.29038313  0.85845426  0.09250704  1
  H  H313  1  0.37829267  0.53162087  0.45939777  1
  C  C314  1  0.35729704  0.90749615  0.10021269  1
  C  C315  1  0.48363527  0.82993103  0.26329868  1
  H  H316  1  0.44332689  0.86797522  0.45849068  1
  C  C317  1  0.31619808  0.90000914  0.13341010  1
  H  H318  1  0.39594334  0.92372631  0.29773686  1
  H  H319  1  0.47452135  0.66557917  0.16200742  1
  H  H320  1  0.34794392  0.79182441  0.16532338  1
  C  C321  1  0.39815518  0.95980178  0.24415175  1
  C  C322  1  0.31232393  0.80175908  0.37681821  1
  O  O323  1  0.49204768  0.65497341  0.40663996  1
  H  H324  1  0.30185490  0.92904439  0.20044786  1
  C  C325  1  0.35496085  0.81694788  0.34566747  1
  C  C326  1  0.43766782  0.83502368  0.29017955  1
  C  C327  1  0.37722882  0.87507086  0.01508291  1
  H  H328  1  0.42081183  0.80585151  0.11032295  1
  C  C329  1  0.37723052  0.96136416  0.14142738  1
  O  O330  1  0.29233734  0.77440627  0.30069173  1
  C  C331  1  0.37019580  0.80644585  0.23034667  1
  C  C332  1  0.37792745  0.84422828  0.43028813  1
  C  C333  1  0.41096761  0.81431432  0.19919862  1
  C  C334  1  0.30769592  0.82853129  0.00225325  1
  C  C335  1  0.41938955  0.85257983  0.39933976  1
  C  C336  1  0.41286191  0.53639033  0.05730068  1
  Cu  Cu337  1  0.25480670  0.72546725  0.35546924  1
  H  H338  1  0.44501388  0.91469347  0.11489372  1
  H  H339  1  0.39546307  0.51136204  0.11867240  1
  C  C340  1  0.47141965  0.59262022  0.00786978  1
  C  C341  1  0.25483273  0.97908702  0.05344704  1
  H  H342  1  0.49274421  0.80024348  0.00348664  1
  O  O343  1  0.32608381  0.51947416  0.02035951  1
  O  O344  1  0.38923149  0.70701575  0.49557870  1
  C  C345  1  0.48826139  0.77840060  0.22120237  1
  O  O346  1  0.29765049  0.81359166  0.47422708  1
  H  H347  1  0.42578962  0.96828505  0.01405646  1
  C  C348  1  0.44278588  0.92604006  0.01877773  1
  H  H349  1  0.39035137  0.61893990  0.82554916  1
  C  C350  1  0.42893051  0.57849842  0.60340688  1
  C  C351  1  0.36165010  0.70354759  0.57418514  1
  H  H352  1  0.31850297  0.68446792  0.74182808  1
  O  O353  1  0.32947453  0.56150907  0.85146721  1
  H  H354  1  0.46666754  0.64837247  0.86116263  1
  Cu  Cu355  1  0.46929615  0.67005193  0.66866220  1
  C  C356  1  0.40260512  0.53128724  0.63034671  1
  C  C357  1  0.45527437  0.97594237  0.52226434  1
  H  H358  1  0.28795030  0.79868415  0.96092490  1
  H  H359  1  0.41718210  0.52480449  0.81216458  1
  C  C360  1  0.34942412  0.83557640  0.96795131  1
  C  C361  1  0.40498754  0.95952719  0.67987730  1
  O  O362  1  0.34940377  0.94861781  0.80507961  1
  C  C363  1  0.36787228  0.73443946  0.68351422  1
  C  C364  1  0.33900417  0.71805740  0.76678168  1
  C  C365  1  0.34582359  0.54739936  0.94457717  1
  O  O366  1  0.34729191  0.89590431  0.65609340  1
  O  O367  1  0.45637262  0.59748996  0.66901060  1
  O  O368  1  0.41467696  0.88088042  0.97264874  1
  O  O369  1  0.46145617  0.74288735  0.87496677  1
  C  C370  1  0.39024576  0.55954605  0.96431080  1
  C  C371  1  0.48843834  0.75447414  0.80519178  1
  C  C372  1  0.39633945  0.77803745  0.69249807  1
  Cu  Cu373  1  0.27605983  0.72708125  0.56959540  1
  O  O374  1  0.32730108  0.68179906  0.55644573  1
  Cu  Cu375  1  0.30605417  0.85598674  0.71644495  1
  H  H376  1  0.41560693  0.84244946  0.80541631  1
  C  C377  1  0.42084756  0.95103356  0.56767809  1
  O  O378  1  0.26703434  0.95181061  0.72977924  1
  H  H379  1  0.40299355  0.92202216  0.51305078  1
  C  C380  1  0.36027131  0.79665580  0.87587023  1
  H  H381  1  0.31185612  0.74186862  0.93552999  1
  C  C382  1  0.39292038  0.80758842  0.79122856  1
  H  H383  1  0.41671263  0.78623977  0.61852696  1
  C  C384  1  0.33455580  0.74931306  0.86456277  1
  C  C385  1  0.36562357  0.93242757  0.71194504  1
  H  H386  1  0.36463377  0.85071589  0.51756058  1
  O  O387  1  0.26469531  0.81336487  0.76757050  1
  C  C388  1  0.40964337  0.60040480  0.89536509  1
  Cu  Cu389  1  0.27384273  0.87550761  0.51649972  1
  O  O390  1  0.48375798  0.74017976  0.69803120  1
  Cu  Cu391  1  0.27918108  0.53050385  0.78987764  1
  C  C392  1  0.45139034  0.61521908  0.90878350  1
  C  C393  1  0.42382205  0.99937005  0.74997833  1
  H  H394  1  0.35030596  0.99847634  0.99229202  1
  H  H395  1  0.48369774  0.95318944  0.87565102  1
  C  C396  1  0.37680531  0.51078152  0.54180743  1
  C  C397  1  0.40231728  0.50418839  0.73587735  1
  H  H398  1  0.49225310  0.55522494  0.84098493  1
  Cu  Cu399  1  0.30565928  0.99996124  0.78449584  1
  C  C400  1  0.48617021  0.93071400  0.95944950  1
  O  O401  1  0.42325938  0.60060869  0.50608536  1
  H  H402  1  0.70705184  0.15095130  0.42488512  1
  H  H403  1  0.50277313  0.45081588  0.40455024  1
  H  H404  1  0.58604156  0.01883064  0.27499459  1
  C  C405  1  0.64436237  0.01619622  0.47494782  1
  H  H406  1  0.57904530  0.14108552  0.33643805  1
  C  C407  1  0.68751582  0.01301516  0.46062214  1
  H  H408  1  0.74631156  0.39839022  0.39461479  1
  C  C409  1  0.63680829  0.03112372  0.02204166  1
  H  H410  1  0.63191159  0.15565312  0.45073359  1
  C  C411  1  0.60323608  0.48259307  0.04417953  1
  H  H412  1  0.64273110  0.11865499  0.08332065  1
  C  C413  1  0.65921606  0.08207327  0.04816401  1
  H  H414  1  0.59990433  0.25943457  0.44865943  1
  C  C415  1  0.52636360  0.45208360  0.11396790  1
  C  C416  1  0.73861771  0.37133761  0.46935011  1
  C  C417  1  0.53231343  0.45219182  0.23394861  1
  H  H418  1  0.56801718  0.04898037  0.01889727  1
  H  H419  1  0.56588130  0.45662749  0.26473481  1
  C  C420  1  0.74665632  0.31682199  0.46240503  1
  C  C421  1  0.56197207  0.11620209  0.39528039  1
  C  C422  1  0.70146681  0.07524928  0.06342729  1
  C  C423  1  0.56848708  0.44861696  0.04382119  1
  H  H424  1  0.53763640  0.37251585  0.01565807  1
  C  C425  1  0.70872197  0.06178998  0.44257435  1
  C  C426  1  0.51901258  0.11765413  0.41187838  1
  C  C427  1  0.68911103  0.11366528  0.43908210  1
  C  C428  1  0.74408960  0.06850666  0.07163890  1
  C  C429  1  0.59447437  0.01969420  0.01005675  1
  C  C430  1  0.64712864  0.11704378  0.44737280  1
  C  C431  1  0.57875787  0.07419235  0.47253177  1
  C  C432  1  0.62379516  0.06670293  0.46516627  1
  H  H433  1  0.58961208  0.12867488  0.75224353  1
  C  C434  1  0.52326716  0.19971866  0.75035122  1
  C  C435  1  0.63303991  0.05930317  0.76298375  1
  H  H436  1  0.60579507  0.10918453  0.89648314  1
  C  C437  1  0.61446148  0.11293960  0.80771411  1
  C  C438  1  0.58692097  0.22763187  0.86217299  1
  H  H439  1  0.74839070  0.49079427  0.73213947  1
  O  O440  1  0.64482621  0.16245598  0.83046197  1
  C  C441  1  0.73351920  0.49335428  0.81665275  1
  C  C442  1  0.62970922  0.20903499  0.86115956  1
  C  C443  1  0.52789124  0.24860686  0.67873571  1
  H  H444  1  0.67050850  0.33079682  0.94920094  1
  H  H445  1  0.53861559  0.28638417  0.89717969  1
  C  C446  1  0.60457192  0.31676262  0.91079325  1
  H  H447  1  0.65379471  0.06631404  0.68855497  1
  C  C448  1  0.55045226  0.19043628  0.84000379  1
  C  C449  1  0.57283738  0.27792503  0.88773211  1
  H  H450  1  0.60845916  0.03160900  0.72918905  1
  C  C451  1  0.66566648  0.47924108  0.55571760  1
  C  C452  1  0.67562848  0.48466803  0.94677834  1
  C  C453  1  0.64721511  0.30431209  0.92171601  1
  O  O454  1  0.72150630  0.03984252  0.78371321  1
  C  C455  1  0.63412838  0.46034350  0.96918625  1
  C  C456  1  0.72368025  0.19334438  0.88050409  1
  H  H457  1  0.56042488  0.26382759  0.68013914  1
  H  H458  1  0.71936889  0.33344294  0.87686037  1
  C  C459  1  0.65822858  0.25149030  0.88608931  1
  C  C460  1  0.70482973  0.45465435  0.55211274  1
  C  C461  1  0.61772492  0.21388362  0.59283303  1
  C  C462  1  0.73865964  0.22500664  0.55636590  1
  H  H463  1  0.70535033  0.15635254  0.88261819  1
  C  C464  1  0.63294633  0.41322446  0.90579461  1
  H  H465  1  0.65036738  0.03837639  0.83548113  1
  H  H466  1  0.58372217  0.33186699  0.67444178  1
  H  H467  1  0.69978253  0.27965006  0.71871562  1
  C  C468  1  0.55160475  0.04038796  0.54117800  1
  C  C469  1  0.60017778  0.37738287  0.93426552  1
  H  H470  1  0.69091012  0.37857005  0.73314405  1
  H  H471  1  0.59297337  0.18355857  0.58166334  1
  C  C472  1  0.70435972  0.24596149  0.88414152  1
  C  C473  1  0.52848936  0.48577137  0.77673728  1
  C  C474  1  0.74264270  0.47853186  0.52456543  1
  H  H475  1  0.55060094  0.45379271  0.80284559  1
  H  H476  1  0.65666613  0.40613805  0.84327174  1
  C  C477  1  0.53822537  0.13910292  0.90083726  1
  C  C478  1  0.50911346  0.04870426  0.53441869  1
  O  O479  1  0.51902507  0.09834923  0.87724653  1
  C  C480  1  0.73155665  0.29237313  0.88511489  1
  C  C481  1  0.70947773  0.30522844  0.64723852  1
  H  H482  1  0.50124729  0.46305481  0.74608199  1
  H  H483  1  0.64259110  0.20546689  0.65505030  1
  O  O484  1  0.72402330  0.19703820  0.63038451  1
  C  C485  1  0.69172082  0.48535933  0.83007407  1
  H  H486  1  0.67321770  0.47232647  0.75676044  1
  C  C487  1  0.70210013  0.36011061  0.65272846  1
  C  C488  1  0.73971107  0.04656233  0.86911090  1
  H  H489  1  0.64258620  0.39689769  0.69851939  1
  C  C490  1  0.58079475  0.37017325  0.62790136  1
  H  H491  1  0.55632017  0.39636930  0.67117889  1
  O  O492  1  0.63014462  0.45628627  0.57880855  1
  C  C493  1  0.73147377  0.28329259  0.55268599  1
  C  C494  1  0.71503315  0.39424300  0.56177764  1
  C  C495  1  0.62442273  0.39672952  0.61564594  1
  C  C496  1  0.62219400  0.25373710  0.51956844  1
  H  H497  1  0.64911690  0.27961807  0.52369320  1
  H  H498  1  0.54885669  0.12731518  0.99611852  1
  C  C499  1  0.56516916  0.39804591  0.99277871  1
  H  H500  1  0.56307096  0.35767579  0.54582390  1
  H  H501  1  0.64415949  0.37556442  0.55044685  1
  H  H502  1  0.55735813  0.63140716  0.25035340  1
  C  C503  1  0.58769765  0.60981372  0.23403833  1
  H  H504  1  0.60191558  0.60108500  0.32325087  1
  C  C505  1  0.53524736  0.70648094  0.12432744  1
  C  C506  1  0.57414337  0.97402086  0.26512458  1
  H  H507  1  0.60597045  0.63891558  0.17681624  1
  C  C508  1  0.69136594  0.95714043  0.02321781  1
  C  C509  1  0.55657931  0.58084877  0.46388005  1
  C  C510  1  0.52724606  0.67669137  0.44214991  1
  C  C511  1  0.69942037  0.50765398  0.04166187  1
  H  H512  1  0.56141717  0.97227462  0.17505801  1
  C  C513  1  0.52843558  0.75776591  0.19391219  1
  C  C514  1  0.70483519  0.56333099  0.49948903  1
  C  C515  1  0.74266536  0.53364908  0.48974394  1
  C  C516  1  0.56351518  0.78644328  0.23377562  1
  C  C517  1  0.74321849  0.88041805  0.02869917  1
  H  H518  1  0.51712168  0.99446564  0.36110923  1
  C  C519  1  0.59601731  0.87233630  0.43776626  1
  H  H520  1  0.55139803  0.56305793  0.12245882  1
  C  C521  1  0.58004860  0.55629846  0.16962857  1
  H  H522  1  0.70779133  0.80271495  0.38823606  1
  C  C523  1  0.57002366  0.70479466  0.05219686  1
  O  O524  1  0.74495778  0.89483792  0.45043335  1
  H  H525  1  0.70206020  0.60228265  0.45989580  1
  C  C526  1  0.55627141  0.83832127  0.27717561  1
  O  O527  1  0.53403797  0.72239250  0.46509892  1
  H  H528  1  0.55483291  0.95099231  0.43284516  1
  H  H529  1  0.59336662  0.76857835  0.22365149  1
  H  H530  1  0.70228386  0.89194423  0.25739034  1
  C  C531  1  0.53901765  0.95891431  0.35159078  1
  H  H532  1  0.57539287  0.52086798  0.22819055  1
  C  C533  1  0.51645344  0.86592508  0.29296584  1
  H  H534  1  0.59093941  0.74092683  0.04749391  1
  O  O535  1  0.61221684  0.52941636  0.09611840  1
  C  C536  1  0.59706415  0.86129697  0.31616436  1
  H  H537  1  0.73251789  0.70967551  0.44403068  1
  H  H538  1  0.63525679  0.86426989  0.16111073  1
  C  C539  1  0.63461687  0.87050251  0.25322497  1
  C  C540  1  0.67186396  0.88477573  0.30806868  1
  C  C541  1  0.64959402  0.97341960  0.01216751  1
  C  C542  1  0.67202342  0.89051006  0.42840264  1
  H  H543  1  0.71647697  0.98580266  0.04154712  1
  C  C544  1  0.51167281  0.62686275  0.02590593  1
  H  H545  1  0.55537500  0.85618573  0.07837122  1
  H  H546  1  0.58557097  0.50129505  0.47980865  1
  H  H547  1  0.52537463  0.56379261  0.43767434  1
  H  H548  1  0.60048556  0.94502594  0.27308759  1
  H  H549  1  0.74312264  0.79961685  0.25685953  1
  C  C550  1  0.50442097  0.66528182  0.11008336  1
  H  H551  1  0.68630391  0.51168875  0.12961128  1
  O  O552  1  0.50806103  0.91545721  0.32137320  1
  H  H553  1  0.56508036  0.86779774  0.48145036  1
  C  C554  1  0.74612081  0.73431988  0.37154198  1
  H  H555  1  0.70437435  0.97527475  0.45425375  1
  C  C556  1  0.69865414  0.89963015  0.01468718  1
  C  C557  1  0.73147369  0.78114947  0.33680208  1
  C  C558  1  0.63441106  0.88360309  0.48949266  1
  C  C559  1  0.74054485  0.51917660  0.02306285  1
  H  H560  1  0.62502816  0.98004283  0.46607567  1
  C  C561  1  0.59032631  0.54635064  0.48124268  1
  H  H562  1  0.50893854  0.95393742  0.01381908  1
  C  C563  1  0.56188539  0.63723192  0.47182740  1
  O  O564  1  0.55527234  0.57969867  0.87934159  1
  C  C565  1  0.67093773  0.64025821  0.77868302  1
  C  C566  1  0.68531797  0.69444556  0.76718183  1
  O  O567  1  0.56522381  0.99887345  0.60505986  1
  C  C568  1  0.62707733  0.72649924  0.88678836  1
  C  C569  1  0.52180812  0.80970617  0.95158034  1
  C  C570  1  0.72351392  0.70901206  0.70386580  1
  H  H571  1  0.57469192  0.88994419  0.68003667  1
  C  C572  1  0.61125202  0.67286174  0.89710877  1
  C  C573  1  0.63474045  0.63080880  0.84128208  1
  H  H574  1  0.68905142  0.60587224  0.74182752  1
  C  C575  1  0.52236784  0.53288449  0.86313473  1
  C  C576  1  0.66338945  0.73539351  0.82480790  1
  H  H577  1  0.60644050  0.76079276  0.91896855  1
  C  C578  1  0.66685629  0.86358557  0.97890649  1
  H  H579  1  0.56800510  0.92412407  0.81124388  1
  H  H580  1  0.52280284  0.98821205  0.73303226  1
  H  H581  1  0.66223983  0.64328143  0.56708318  1
  C  C582  1  0.54686634  0.61904307  0.95563777  1
  O  O583  1  0.70971994  0.90315728  0.60690714  1
  H  H584  1  0.54346067  0.50365291  0.69694618  1
  H  H585  1  0.73473030  0.61925478  0.90470403  1
  H  H586  1  0.73608535  0.79811612  0.97300420  1
  H  H587  1  0.67446712  0.77745578  0.81726363  1
  C  C588  1  0.71007770  0.89326284  0.50193825  1
  C  C589  1  0.55313939  0.91219267  0.73691851  1
  C  C590  1  0.53404819  0.96014186  0.66975803  1
  H  H591  1  0.63769754  0.88510848  0.58264501  1
  C  C592  1  0.62464425  0.88317766  0.96445633  1
  H  H593  1  0.55118657  0.77713788  0.66539571  1
  C  C594  1  0.52557652  0.78681941  0.84003175  1
  C  C595  1  0.55651940  0.79599390  0.75468627  1
  H  H596  1  0.59948465  0.70555198  0.51146241  1
  H  H597  1  0.52981840  0.88192845  0.76201276  1
  H  H598  1  0.61962981  0.83370129  0.75364899  1
  C  C599  1  0.59904800  0.66117880  0.50680817  1
  H  H600  1  0.62145425  0.58872900  0.84484683  1
  C  C601  1  0.59119948  0.82512779  0.80154081  1
  H  H602  1  0.50824019  0.94699073  0.61310669  1
  C  C603  1  0.58963969  0.84606220  0.91573940  1
  O  O604  1  0.73575720  0.75291802  0.69384930  1
  H  H605  1  0.67592539  0.82091890  0.97196728  1
  H  H606  1  0.52149586  0.51820164  0.95205755  1
  H  H607  1  0.50441428  0.89289321  0.95567714  1
  C  C608  1  0.63175993  0.62592831  0.53043911  1
  C  C609  1  0.57537945  0.66181052  0.97438567  1
  C  C610  1  0.61624690  0.93763057  0.98727166  1
  O  O611  1  0.58098624  0.97277432  0.98586956  1
  O  O612  1  0.74983289  0.66152539  0.65516610  1
  C  C613  1  0.63008722  0.56994030  0.51450219  1
  C  C614  1  0.66818837  0.53648974  0.52772171  1
  C  C615  1  0.55531215  0.84091461  0.98996243  1
  C  C616  1  0.87168064  0.11917182  0.22142567  1
  H  H617  1  0.84769444  0.36721598  0.12530299  1
  O  O618  1  0.86386349  0.14300756  0.30900566  1
  C  C619  1  0.90614325  0.40828915  0.13573753  1
  C  C620  1  0.85673013  0.06435442  0.19538722  1
  H  H621  1  0.78978384  0.47784913  0.34787986  1
  C  C622  1  0.86227149  0.49604008  0.22476565  1
  O  O623  1  0.90340054  0.31717164  0.06774053  1
  C  C624  1  0.87089806  0.03964372  0.09138354  1
  O  O625  1  0.77006684  0.01688320  0.44675924  1
  C  C626  1  0.82853056  0.03582959  0.26749121  1
  H  H627  1  0.89227877  0.06332601  0.03293923  1
  C  C628  1  0.92769401  0.45523665  0.16075707  1
  C  C629  1  0.86275089  0.40465734  0.15007513  1
  C  C630  1  0.92855117  0.35839218  0.09222418  1
  H  H631  1  0.96169091  0.45464697  0.14045356  1
  H  H632  1  0.76239432  0.07598505  0.15229773  1
  H  H633  1  0.80624780  0.45142497  0.18304826  1
  C  C634  1  0.83945658  0.45063103  0.17948522  1
  O  O635  1  0.96513653  0.35577805  0.08890411  1
  Cu  Cu636  1  0.87933199  0.17127081  0.00358756  1
  O  O637  1  0.89626316  0.14108005  0.14261601  1
  H  H638  1  0.76589138  0.29938539  0.38737903  1
  C  C639  1  0.75417437  0.06248134  0.43648628  1
  O  O640  1  0.76930878  0.20733492  0.48804020  1
  O  O641  1  0.77423545  0.10719383  0.42038336  1
  H  H642  1  0.81454273  0.05722706  0.34641838  1
  H  H643  1  0.92415949  0.01602508  0.49119671  1
  O  O644  1  0.86013054  0.27336957  0.87615049  1
  H  H645  1  0.96049304  0.17395282  0.73150329  1
  C  C646  1  0.95249102  0.14120012  0.67534638  1
  H  H647  1  0.88591071  0.15604025  0.69069885  1
  C  C648  1  0.91091538  0.13035833  0.66096118  1
  C  C649  1  0.93132770  0.05045223  0.53870411  1
  O  O650  1  0.95685255  0.22676352  0.91312999  1
  O  O651  1  0.92960413  0.14780024  0.93314156  1
  H  H652  1  0.77876062  0.14429994  0.88545119  1
  C  C653  1  0.93954172  0.48815758  0.79272250  1
  H  H654  1  0.97520233  0.07059036  0.95833333  1
  O  O655  1  0.82834975  0.10021675  0.61014978  1
  C  C656  1  0.83598461  0.23296737  0.86997366  1
  O  O657  1  0.85207449  0.18697317  0.86823298  1
  C  C658  1  0.97245097  0.06263777  0.56540693  1
  H  H659  1  0.96524157  0.44712545  0.59793299  1
  C  C660  1  0.96071388  0.17768193  0.93207945  1
  C  C661  1  0.98685607  0.10898484  0.62959972  1
  O  O662  1  0.84685998  0.02521625  0.52555663  1
  C  C663  1  0.90081681  0.08378760  0.58962980  1
  C  C664  1  0.85805792  0.06945279  0.57105707  1
  H  H665  1  0.98476232  0.44671684  0.97094023  1
  H  H666  1  0.79613915  0.32136003  0.89704052  1
  H  H667  1  0.77179182  0.45709187  0.52622766  1
  C  C668  1  0.97353762  0.44825386  0.78291745  1
  C  C669  1  0.77440288  0.28562580  0.88908251  1
  H  H670  1  0.79880852  0.04666922  0.96498288  1
  C  C671  1  0.79104034  0.23329854  0.87917642  1
  C  C672  1  0.76529575  0.18558223  0.88317578  1
  C  C673  1  0.76462412  0.05237131  0.96776663  1
  Cu  Cu674  1  0.91260304  0.26913708  0.94927134  1
  C  C675  1  0.98235380  0.43252812  0.66885279  1
  H  H676  1  0.99585460  0.03448718  0.53034782  1
  C  C677  1  0.99449380  0.43114404  0.88225509  1
  Cu  Cu678  1  0.79776891  0.14911830  0.53728734  1
  O  O679  1  0.88679005  0.60583404  0.26290035  1
  C  C680  1  0.83228316  0.62297740  0.40043312  1
  C  C681  1  0.85709367  0.58966452  0.31728858  1
  H  H682  1  0.88716699  0.68265952  0.27458822  1
  C  C683  1  0.87394941  0.70696270  0.34349505  1
  C  C684  1  0.78005320  0.55529387  0.42294379  1
  C  C685  1  0.84747651  0.67838204  0.42204919  1
  C  C686  1  0.79561041  0.60751207  0.45223573  1
  C  C687  1  0.83921599  0.53585802  0.30045669  1
  C  C688  1  0.83888162  0.72779625  0.07802202  1
  C  C689  1  0.88113111  0.76162261  0.35360141  1
  C  C690  1  0.80392482  0.51973473  0.35368963  1
  C  C691  1  0.75765419  0.82652321  0.01337123  1
  H  H692  1  0.87102319  0.65195974  0.10820114  1
  C  C693  1  0.83253637  0.85317646  0.07131562  1
  C  C694  1  0.94609952  0.87916049  0.17230582  1
  O  O695  1  0.87168975  0.84035778  0.08695783  1
  H  H696  1  0.88483857  0.91154895  0.19169914  1
  H  H697  1  0.83962776  0.74442700  0.16665001  1
  H  H698  1  0.89691531  0.78558539  0.28291648  1
  C  C699  1  0.86533975  0.79089769  0.44673455  1
  C  C700  1  0.82951253  0.96132715  0.12815061  1
  H  H701  1  0.92215696  0.53640630  0.24312693  1
  H  H702  1  0.76164402  0.96019575  0.08393193  1
  C  C703  1  0.90222889  0.88874422  0.12445480  1
  H  H704  1  0.90238079  0.90820718  0.04000391  1
  C  C705  1  0.87577430  0.84910042  0.44741067  1
  C  C706  1  0.77189849  0.91999984  0.06548616  1
  H  H707  1  0.77271518  0.71511907  0.32256197  1
  H  H708  1  0.75952033  0.53153870  0.09928318  1
  H  H709  1  0.94503335  0.86461061  0.25937750  1
  H  H710  1  0.96059792  0.91743639  0.17874914  1
  H  H711  1  0.79577407  0.95979831  0.28942396  1
  C  C712  1  0.81257194  0.90457994  0.08841479  1
  O  O713  1  0.89954124  0.87229474  0.38374848  1
  H  H714  1  0.96632339  0.85393664  0.12031901  1
  C  C715  1  0.80029030  0.81702376  0.03442003  1
  H  H716  1  0.98525943  0.96050288  0.02352360  1
  C  C717  1  0.85531862  0.67847643  0.04568138  1
  C  C718  1  0.81506073  0.98526785  0.23049274  1
  C  C719  1  0.85761025  0.98962171  0.05494391  1
  C  C720  1  0.90685068  0.50027390  0.20943428  1
  H  H721  1  0.99769966  0.84615157  0.46869879  1
  C  C722  1  0.85290425  0.67047922  0.92608361  1
  C  C723  1  0.83313468  0.70312776  0.84024015  1
  H  H724  1  0.83210805  0.69007795  0.74555496  1
  C  C725  1  0.87460584  0.62205801  0.88640923  1
  Cu  Cu726  1  0.86673577  0.53729090  0.73237184  1
  O  O727  1  0.87523544  0.60937823  0.77951931  1
  C  C728  1  0.98994623  0.85465047  0.65269348  1
  H  H729  1  0.86680815  0.84603725  0.87389227  1
  C  C730  1  0.76851554  0.62710250  0.73231267  1
  C  C731  1  0.83047991  0.71118783  0.51418059  1
  C  C732  1  0.83348441  0.93678866  0.76735153  1
  C  C733  1  0.81409662  0.74978299  0.87643478  1
  H  H734  1  0.94935604  0.81480974  0.52093024  1
  H  H735  1  0.79519962  0.77422429  0.81749338  1
  O  O736  1  0.85275054  0.87525839  0.52494865  1
  O  O737  1  0.82532540  0.98168188  0.72010548  1
  C  C738  1  0.94847900  0.96046367  0.76401011  1
  C  C739  1  0.90636484  0.96432483  0.74360352  1
  O  O740  1  0.82406439  0.52558136  0.97739296  1
  O  O741  1  0.89226578  0.59239653  0.95892145  1
  H  H742  1  0.94436446  0.83443932  0.90387308  1
  O  O743  1  0.80636002  0.90158069  0.78095557  1
  C  C744  1  0.83829392  0.76521207  0.52733341  1
  C  C745  1  0.96237726  0.91480386  0.82999522  1
  H  H746  1  0.80175989  0.62767457  0.70656294  1
  C  C747  1  0.87854343  0.92547649  0.78813012  1
  C  C748  1  0.88978865  0.87749709  0.84582948  1
  C  C749  1  0.93258151  0.87297906  0.86278137  1
  H  H750  1  0.96284042  0.84876250  0.70847755  1
  Cu  Cu751  1  0.88347192  0.51562486  0.96023291  1
  Cu  Cu752  1  0.75581953  0.90881310  0.69934864  1
  C  C753  1  0.80097111  0.52250908  0.88851438  1
  H  H754  1  0.82339730  0.79144646  0.59462376  1
  H  H755  1  0.76237525  0.67986077  0.88705616  1
  H  H756  1  0.99434717  0.89754717  0.62833438  1
  H  H757  1  0.86661352  0.97436398  0.96817646  1
  C  C758  1  0.76341391  0.63651949  0.86629253  1
  O  O759  1  0.81475617  0.52570752  0.78686995  1
  C  C760  1  0.98347349  0.82066495  0.54157735  1
  H  H761  1  0.99669565  0.77886742  0.54783421  1
  O  O762  1  0.93410294  0.50308074  0.89330683  1
  O  O763  1  0.92096246  0.51229828  0.70744115  1
  H  H764  1  0.75856613  0.58313282  0.71588699  1
  H  H765  1  0.80498572  0.69371196  0.56805120  1
  C  C766  1  0.75740729  0.51034250  0.91295702  1
  Cu  Cu767  1  0.79875964  0.88913552  0.50996159  1
  H  H768  1  0.97041956  0.99140694  0.73523810  1
  C  C769  1  0.81660777  0.76216084  0.99862144  1
  Cu  Cu770  1  0.79867962  0.99315661  0.58553933  1
  H  H771  1  0.89218154  0.99691991  0.69048665  1
  H  H772  1  0.77895295  0.63284103  0.51831420  1
  H  H773  1  0.79235342  0.61856504  0.91131964  1
