# generated using pymatgen
data_CuH15C22O5
_symmetry_space_group_name_H-M   'P 1'
_cell_length_a   34.42576118
_cell_length_b   29.64918132
_cell_length_c   10.47538584
_cell_angle_alpha   90.00000000
_cell_angle_beta   90.00000000
_cell_angle_gamma   90.00000000
_symmetry_Int_Tables_number   1
_chemical_formula_structural   CuH15C22O5
_chemical_formula_sum   'Cu18 H270 C396 O90'
_cell_volume   10692.18060158
_cell_formula_units_Z   18
loop_
 _symmetry_equiv_pos_site_id
 _symmetry_equiv_pos_as_xyz
  1  'x, y, z'
loop_
 _atom_site_type_symbol
 _atom_site_label
 _atom_site_symmetry_multiplicity
 _atom_site_fract_x
 _atom_site_fract_y
 _atom_site_fract_z
 _atom_site_occupancy
  H  H0  1  0.15614860  0.08296626  0.10290879  1
  C  C1  1  0.13223547  0.10094394  0.16086486  1
  C  C2  1  0.11469737  0.08343531  0.26751455  1
  C  C3  1  0.12944091  0.04057492  0.30914986  1
  H  H4  1  0.06735581  0.16159778  0.22084200  1
  C  C5  1  0.08940074  0.17171979  0.14998159  1
  C  C6  1  0.12318965  0.14546608  0.12043975  1
  H  H7  1  0.09023385  0.09861174  0.31942835  1
  Cu  Cu8  1  0.19676598  0.09342415  0.39647584  1
  C  C9  1  0.15358038  0.01832728  0.22834766  1
  O  O10  1  0.09011127  0.20784214  0.09299258  1
  H  H11  1  0.12059476  0.02583722  0.39835622  1
  O  O12  1  0.22927391  0.09054385  0.27878992  1
  O  O13  1  0.18523583  0.03520499  0.03656407  1
  O  O14  1  0.01149284  0.12139679  0.28050399  1
  H  H15  1  0.06815188  0.01795054  0.10456368  1
  C  C16  1  0.08188390  0.02877603  0.01618174  1
  H  H17  1  0.05222580  0.09974766  0.00616864  1
  C  C18  1  0.12721341  0.21013718  0.02232734  1
  C  C19  1  0.14901511  0.16901767  0.03756397  1
  C  C20  1  0.17518465  0.00417972  0.14913161  1
  C  C21  1  0.24930829  0.05301735  0.28088192  1
  H  H22  1  0.11189826  0.03886891  0.03639022  1
  H  H23  1  0.15296167  0.44603960  0.22828103  1
  H  H24  1  0.10788620  0.41405695  0.24692402  1
  H  H25  1  0.23538857  0.43554388  0.48552417  1
  C  C26  1  0.23001944  0.31237589  0.34859816  1
  H  H27  1  0.16692352  0.41911542  0.01743188  1
  H  H28  1  0.11508212  0.42903661  0.02982506  1
  H  H29  1  0.13424162  0.37178902  0.03384238  1
  C  C30  1  0.21279552  0.47787409  0.06048893  1
  H  H31  1  0.22486908  0.33716409  0.26709489  1
  C  C32  1  0.22900110  0.43801893  0.00873260  1
  H  H33  1  0.21094694  0.49036995  0.46275333  1
  C  C34  1  0.08281333  0.44490647  0.44392023  1
  C  C35  1  0.12083161  0.46229339  0.41756477  1
  C  C36  1  0.23501945  0.46805592  0.42722074  1
  H  H37  1  0.02071788  0.45768832  0.41845775  1
  C  C38  1  0.23397698  0.46089654  0.27985113  1
  C  C39  1  0.15386543  0.43236188  0.47050907  1
  C  C40  1  0.21108033  0.32190012  0.46740366  1
  C  C41  1  0.17100697  0.39256062  0.41183312  1
  H  H42  1  0.21671340  0.42884664  0.26365498  1
  O  O43  1  0.16154165  0.37930638  0.29843308  1
  C  C44  1  0.05046491  0.46809726  0.40180857  1
  C  C45  1  0.24324748  0.35612266  0.06495599  1
  C  C46  1  0.13855950  0.40642142  0.06306045  1
  O  O47  1  0.21610003  0.49089700  0.18408653  1
  C  C48  1  0.13933797  0.41228916  0.20960705  1
  H  H49  1  0.21505538  0.34798501  0.02189952  1
  C  C50  1  0.04405716  0.12953216  0.76207914  1
  C  C51  1  0.11766762  0.12752978  0.65315388  1
  C  C52  1  0.10879768  0.15953541  0.74987637  1
  C  C53  1  0.07229643  0.16178201  0.80735739  1
  H  H54  1  0.06403707  0.18862716  0.87441165  1
  H  H55  1  0.12941163  0.18519772  0.78381424  1
  C  C56  1  0.05649295  0.09517958  0.67369307  1
  O  O57  1  0.18624864  0.14583756  0.64651490  1
  C  C58  1  0.15824146  0.12365086  0.60738101  1
  C  C59  1  0.09192938  0.09347593  0.61440985  1
  H  H60  1  0.06941397  0.07191531  0.85964760  1
  C  C61  1  0.20433859  0.20010189  0.91418042  1
  O  O62  1  0.21811875  0.02946631  0.82437096  1
  Cu  Cu63  1  0.22906956  0.15102329  0.55673810  1
  H  H64  1  0.03591825  0.07064276  0.63934797  1
  H  H65  1  0.14722954  0.04649310  0.80771144  1
  C  C66  1  0.05584791  0.06567751  0.95767916  1
  C  C67  1  0.13847556  0.01386848  0.76353385  1
  H  H68  1  0.07451167  0.02562826  0.77184140  1
  O  O69  1  0.01384742  0.05882117  0.95072127  1
  H  H70  1  0.23657011  0.22683254  0.65070131  1
  C  C71  1  0.09932797  0.00108439  0.75007507  1
  C  C72  1  0.18304052  0.23976485  0.89288161  1
  C  C73  1  0.24662722  0.20676015  0.88337810  1
  Cu  Cu74  1  0.23628763  0.02828232  0.98708691  1
  C  C75  1  0.00259137  0.12541619  0.80935182  1
  O  O76  1  0.16430880  0.09432498  0.52041104  1
  C  C77  1  0.18441803  0.16375559  0.97024358  1
  H  H78  1  0.10013701  0.06596328  0.54575494  1
  C  C79  1  0.14430326  0.24282448  0.94109808  1
  H  H80  1  0.20085854  0.13247279  0.98078684  1
  C  C81  1  0.23653899  0.25031848  0.56646801  1
  H  H82  1  0.08000643  0.41447851  0.50472333  1
  C  C83  1  0.14566491  0.32158983  0.83326259  1
  C  C84  1  0.08547117  0.29541636  0.93460708  1
  H  H85  1  0.03760554  0.34264800  0.94217870  1
  C  C86  1  0.08642166  0.36709961  0.82558414  1
  Cu  Cu87  1  0.00238065  0.46166014  0.73673143  1
  C  C88  1  0.16418645  0.44822399  0.59092283  1
  C  C89  1  0.07006938  0.41113570  0.77723361  1
  C  C90  1  0.22652167  0.42296604  0.87984692  1
  C  C91  1  0.19429110  0.36751043  0.50125919  1
  H  H92  1  0.15152642  0.48085604  0.62049920  1
  H  H93  1  0.24467420  0.28085621  0.87259038  1
  H  H94  1  0.24608022  0.39395317  0.85207292  1
  H  H95  1  0.17691312  0.31825367  0.81319983  1
  C  C96  1  0.06703846  0.33537129  0.90873554  1
  H  H97  1  0.22178553  0.36211199  0.68504858  1
  H  H98  1  0.19887186  0.30157314  0.65798933  1
  O  O99  1  0.03272189  0.41758792  0.79703927  1
  C  C100  1  0.20423020  0.38249521  0.62085280  1
  C  C101  1  0.20146387  0.44560094  0.79205457  1
  O  O102  1  0.08860390  0.43901250  0.71967919  1
  C  C103  1  0.19151387  0.42516319  0.66732834  1
  H  H104  1  0.14218004  0.38643539  0.74188860  1
  C  C105  1  0.21391058  0.29067978  0.57301850  1
  H  H106  1  0.19865665  0.26745841  0.84784301  1
  C  C107  1  0.18249696  0.48383740  0.84364774  1
  C  C108  1  0.12601797  0.36040581  0.79589008  1
  C  C109  1  0.12460505  0.28848115  0.89829390  1
  H  H110  1  0.07021149  0.27207263  0.99423101  1
  O  O111  1  0.00731788  0.49303556  0.89554399  1
  O  O112  1  0.10188166  0.66798928  0.19698358  1
  H  H113  1  0.15871470  0.63011171  0.22075634  1
  C  C114  1  0.17604880  0.56985296  0.11517980  1
  H  H115  1  0.20138678  0.56200163  0.17621753  1
  C  C116  1  0.15171771  0.60479090  0.14396665  1
  H  H117  1  0.09941953  0.55305410  0.22903238  1
  C  C118  1  0.11712122  0.60639298  0.07436033  1
  C  C119  1  0.09057004  0.64294883  0.11862387  1
  O  O120  1  0.02198161  0.57968735  0.22157951  1
  C  C121  1  0.02193754  0.53386783  0.30196601  1
  C  C122  1  0.09463683  0.52265361  0.29385403  1
  O  O123  1  0.05436054  0.64307782  0.07287613  1
  Cu  Cu124  1  0.02107446  0.59320626  0.03057459  1
  H  H125  1  0.04772528  0.58708807  0.26587953  1
  H  H126  1  0.13544794  0.70375862  0.44098861  1
  C  C127  1  0.05818059  0.50891521  0.33595484  1
  C  C128  1  0.16571653  0.54096688  0.01088314  1
  H  H129  1  0.15707572  0.50516588  0.29671013  1
  C  C130  1  0.15891270  0.68419743  0.49695019  1
  C  C131  1  0.12822346  0.50006639  0.33818058  1
  H  H132  1  0.13600070  0.61576792  0.48374917  1
  C  C133  1  0.12358470  0.86077422  0.40576519  1
  C  C134  1  0.15715993  0.83484678  0.45848485  1
  O  O135  1  0.01702337  0.97428738  0.27944541  1
  H  H136  1  0.19537151  0.89388661  0.45129351  1
  C  C137  1  0.19204080  0.85660754  0.48105860  1
  C  C138  1  0.08785828  0.83780054  0.38384918  1
  Cu  Cu139  1  0.24478494  0.96097240  0.12265124  1
  H  H140  1  0.09650173  0.97120671  0.34770153  1
  C  C141  1  0.01915950  0.93292392  0.28778615  1
  H  H142  1  0.13819454  0.90808658  0.05364348  1
  H  H143  1  0.08442716  0.80182190  0.39969912  1
  H  H144  1  0.02699851  0.85065721  0.32319888  1
  C  C145  1  0.12588836  0.90893013  0.37877904  1
  H  H146  1  0.09319221  0.92663941  0.13038468  1
  C  C147  1  0.15195512  0.78648167  0.48384871  1
  O  O148  1  0.12228957  0.76366335  0.46704551  1
  O  O149  1  0.19105276  0.96274943  0.14222500  1
  C  C150  1  0.09366427  0.93411413  0.35543766  1
  C  C151  1  0.05602709  0.86416420  0.34472389  1
  C  C152  1  0.05710839  0.91208513  0.33309400  1
  C  C153  1  0.10628313  0.90150929  0.05577403  1
  H  H154  1  0.10021957  0.86579366  0.09266062  1
  H  H155  1  0.15313055  0.92716449  0.38733343  1
  C  C156  1  0.18982932  0.57377050  0.63420138  1
  C  C157  1  0.18874103  0.62271982  0.59858987  1
  C  C158  1  0.01328920  0.65172262  0.81032129  1
  C  C159  1  0.21955093  0.65065749  0.64154969  1
  O  O160  1  0.22144300  0.56001014  0.69068886  1
  O  O161  1  0.16488354  0.54919007  0.59932277  1
  C  C162  1  0.22339618  0.69583079  0.61195023  1
  H  H163  1  0.12202875  0.51914448  0.86472739  1
  O  O164  1  0.04061187  0.67881021  0.78066474  1
  O  O165  1  0.02094157  0.61370806  0.85858401  1
  C  C166  1  0.08413744  0.66488384  0.78983557  1
  H  H167  1  0.08248220  0.63793801  0.71340725  1
  H  H168  1  0.19854804  0.72001390  0.83224480  1
  C  C169  1  0.11459192  0.70187415  0.76237496  1
  C  C170  1  0.18969162  0.71276989  0.54248456  1
  H  H171  1  0.14035208  0.68229223  0.71878893  1
  H  H172  1  0.08626195  0.64974077  0.88870048  1
  H  H173  1  0.10293478  0.72740543  0.69676456  1
  C  C174  1  0.21410149  0.69818953  0.90269899  1
  H  H175  1  0.19309183  0.63124693  0.83623297  1
  H  H176  1  0.12308553  0.72092484  0.85212165  1
  C  C177  1  0.19487496  0.64934873  0.92641497  1
  H  H178  1  0.07622789  0.58048595  0.91921919  1
  C  C179  1  0.12938465  0.54261461  0.94189290  1
  H  H180  1  0.16302515  0.50195712  0.77615738  1
  H  H181  1  0.24262611  0.63518814  0.69190755  1
  H  H182  1  0.24877446  0.71754211  0.63946175  1
  C  C183  1  0.10393256  0.57712995  0.97381081  1
  C  C184  1  0.15750837  0.63824797  0.52515501  1
  C  C185  1  0.18964516  0.50015950  0.96776435  1
  H  H186  1  0.21298070  0.71717945  0.99938607  1
  H  H187  1  0.16479231  0.65189971  0.96371961  1
  H  H188  1  0.21401220  0.62864931  0.98956817  1
  H  H189  1  0.04607559  0.97705450  0.50545666  1
  C  C190  1  0.15862243  0.93730394  0.68293340  1
  O  O191  1  0.24667874  0.78086569  0.85503757  1
  H  H192  1  0.18222406  0.91342067  0.66099077  1
  C  C193  1  0.20788362  0.99340430  0.75472914  1
  C  C194  1  0.11978271  0.92569657  0.66751683  1
  H  H195  1  0.24851078  0.76576373  0.56331216  1
  H  H196  1  0.01025529  0.83762440  0.90453969  1
  H  H197  1  0.09734506  0.89139465  0.84595178  1
  C  C198  1  0.08707921  0.91230556  0.92605310  1
  O  O199  1  0.23181605  0.96621409  0.72543872  1
  C  C200  1  0.02720788  0.92120647  0.79066071  1
  C  C201  1  0.03048331  0.95804677  0.57276027  1
  C  C202  1  0.08993365  0.95837002  0.69922189  1
  H  H203  1  0.11114660  0.89226027  0.62421752  1
  H  H204  1  0.09265625  0.94892580  0.90159903  1
  C  C205  1  0.04711728  0.94522736  0.68994178  1
  O  O206  1  0.04135876  0.90817824  0.89897835  1
  C  C207  1  0.22267065  0.78486875  0.53803005  1
  C  C208  1  0.16646454  0.98045772  0.73508522  1
  H  H209  1  0.08062887  0.99955315  0.95143559  1
  C  C210  1  0.18788297  0.76165940  0.51893384  1
  C  C211  1  0.22550545  0.83066966  0.51313301  1
  C  C212  1  0.41776970  0.11768532  0.21469439  1
  C  C213  1  0.26763111  0.04374289  0.37240390  1
  C  C214  1  0.45782585  0.11903522  0.24470282  1
  C  C215  1  0.38823493  0.14268357  0.29246369  1
  O  O216  1  0.35421873  0.14705443  0.24027959  1
  O  O217  1  0.39670591  0.15401915  0.39941661  1
  Cu  Cu218  1  0.33780438  0.20606204  0.21002576  1
  H  H219  1  0.46353213  0.13633357  0.33514371  1
  C  C220  1  0.48329990  0.09835202  0.16586241  1
  O  O221  1  0.28843312  0.19418454  0.29811634  1
  C  C222  1  0.27472095  0.20165716  0.40758547  1
  C  C223  1  0.40426703  0.09743451  0.09993999  1
  H  H224  1  0.37291508  0.09811005  0.07666319  1
  C  C225  1  0.47313517  0.07651496  0.04692618  1
  H  H226  1  0.39154705  0.03842137  0.23480517  1
  O  O227  1  0.25487999  0.02447762  0.14871567  1
  C  C228  1  0.43249298  0.07977424  0.01788134  1
  C  C229  1  0.28776536  0.03681301  0.48249240  1
  H  H230  1  0.36371388  0.06365856  0.43790841  1
  C  C231  1  0.38302268  0.03262504  0.43353488  1
  H  H232  1  0.48539877  0.03067184  0.39736092  1
  C  C233  1  0.40003614  0.02172576  0.32206059  1
  O  O234  1  0.27591665  0.16977703  0.48840497  1
  C  C235  1  0.25399851  0.24300945  0.44695571  1
  C  C236  1  0.25102134  0.27369731  0.34422895  1
  C  C237  1  0.28989283  0.41381416  0.13170152  1
  H  H238  1  0.26182781  0.48438904  0.45023932  1
  O  O239  1  0.32266669  0.26117578  0.15461176  1
  C  C240  1  0.30561927  0.33824742  0.15341377  1
  O  O241  1  0.36711649  0.31110220  0.21767684  1
  H  H242  1  0.30073692  0.44917722  0.12275494  1
  C  C243  1  0.31596281  0.38212797  0.18133128  1
  H  H244  1  0.26435239  0.28784182  0.06903541  1
  C  C245  1  0.25308365  0.40266154  0.07702552  1
  H  H246  1  0.34411482  0.38919225  0.22722591  1
  C  C247  1  0.33519727  0.30320569  0.18566378  1
  C  C248  1  0.27010492  0.32329502  0.09667610  1
  H  H249  1  0.26357697  0.45992619  0.23939244  1
  H  H250  1  0.26738336  0.26805779  0.25459791  1
  C  C251  1  0.37331162  0.05992415  0.75043864  1
  C  C252  1  0.38707566  0.09711284  0.67514311  1
  C  C253  1  0.36657930  0.13777824  0.68587211  1
  C  C254  1  0.33330150  0.14079458  0.77056149  1
  C  C255  1  0.30999094  0.18248802  0.79940408  1
  H  H256  1  0.37624390  0.16459645  0.62665880  1
  C  C257  1  0.34073849  0.06139078  0.83778066  1
  C  C258  1  0.32275199  0.10203297  0.84691227  1
  C  C259  1  0.32299440  0.22443163  0.74937070  1
  O  O260  1  0.35670570  0.23104796  0.69197057  1
  C  C261  1  0.27346661  0.17198747  0.84938714  1
  H  H262  1  0.42609848  0.06608684  0.92279571  1
  H  H263  1  0.41021301  0.09394231  0.59950947  1
  H  H264  1  0.33101140  0.03360117  0.89974098  1
  H  H265  1  0.29765462  0.10839368  0.91102357  1
  C  C266  1  0.39456666  0.01757298  0.74222583  1
  H  H267  1  0.33916388  0.01732612  0.65025835  1
  H  H268  1  0.29181861  0.06281051  0.55520251  1
  O  O269  1  0.42531729  0.01217961  0.69001121  1
  C  C270  1  0.49070821  0.06150817  0.81838836  1
  H  H271  1  0.46113208  0.07244423  0.78193978  1
  H  H272  1  0.26335830  0.13634898  0.86276683  1
  H  H273  1  0.38737102  0.01460082  0.52388961  1
  C  C274  1  0.26272924  0.25005179  0.85971532  1
  H  H275  1  0.42008101  0.26707066  0.54241125  1
  C  C276  1  0.30126231  0.31012153  0.78181998  1
  C  C277  1  0.31102609  0.45657559  0.75352649  1
  C  C278  1  0.31772804  0.33891191  0.88052931  1
  C  C279  1  0.29700591  0.25898563  0.79664553  1
  O  O280  1  0.29457996  0.47861515  0.65695732  1
  H  H281  1  0.32702407  0.40541814  0.95613884  1
  O  O282  1  0.32322046  0.47701847  0.84364882  1
  C  C283  1  0.31031230  0.40582438  0.75737453  1
  H  H284  1  0.34093141  0.28839909  0.62395741  1
  C  C285  1  0.32008763  0.38584200  0.87206868  1
  H  H286  1  0.32906770  0.32182404  0.96231612  1
  C  C287  1  0.40463237  0.29635093  0.59688695  1
  H  H288  1  0.29086773  0.40001532  0.56454330  1
  H  H289  1  0.36945624  0.28736586  0.77540267  1
  C  C290  1  0.36897741  0.27904312  0.66908499  1
  C  C291  1  0.29311596  0.33354300  0.66589408  1
  C  C292  1  0.29801673  0.38099167  0.64924517  1
  H  H293  1  0.28170547  0.31050587  0.59172223  1
  H  H294  1  0.42545270  0.31563520  0.65796022  1
  H  H295  1  0.39421925  0.32022888  0.52143787  1
  O  O296  1  0.49033554  0.73797613  0.30616289  1
  H  H297  1  0.43983988  0.72544714  0.47306324  1
  C  C298  1  0.41721342  0.74640859  0.42230788  1
  C  C299  1  0.46520472  0.76101833  0.24899378  1
  C  C300  1  0.49719481  0.97273821  0.26840792  1
  O  O301  1  0.47416911  0.78333009  0.15078102  1
  C  C302  1  0.42695468  0.76649460  0.30484133  1
  H  H303  1  0.41669416  0.83512439  0.45226741  1
  C  C304  1  0.29534962  0.82097345  0.48018767  1
  H  H305  1  0.47684605  0.94563523  0.29605210  1
  H  H306  1  0.36881869  0.87931276  0.33207115  1
  C  C307  1  0.30149165  0.99213487  0.49961912  1
  H  H308  1  0.29072411  0.96302287  0.44194245  1
  C  C309  1  0.37856529  0.95425110  0.08515630  1
  C  C310  1  0.42317678  0.89577213  0.23490400  1
  C  C311  1  0.40097383  0.79567004  0.23199157  1
  H  H312  1  0.28690707  0.79078121  0.41954460  1
  O  O313  1  0.29795427  0.95189626  0.10709241  1
  C  C314  1  0.41851551  0.95086396  0.05882074  1
  C  C315  1  0.48133727  0.90028854  0.08430998  1
  C  C316  1  0.44244805  0.91970263  0.12947212  1
  C  C317  1  0.38379459  0.90030437  0.25765353  1
  H  H318  1  0.44202380  0.87257349  0.29545861  1
  C  C319  1  0.36683337  0.80545783  0.29553190  1
  H  H320  1  0.40719409  0.80649043  0.13599562  1
  O  O321  1  0.30018320  0.90837485  0.27247466  1
  C  C322  1  0.36066419  0.92590111  0.17265588  1
  H  H323  1  0.34330640  0.82611906  0.25575527  1
  C  C324  1  0.31691664  0.92914191  0.19241532  1
  C  C325  1  0.35902469  0.79462854  0.42991106  1
  H  H326  1  0.42110376  0.99220597  0.30967355  1
  H  H327  1  0.48898060  0.98911413  0.17500239  1
  C  C328  1  0.38318678  0.75995061  0.48241180  1
  H  H329  1  0.35913348  0.97634756  0.02913787  1
  O  O330  1  0.44183972  0.70299729  0.63682351  1
  C  C331  1  0.37357649  0.71456693  0.79166072  1
  H  H332  1  0.39155630  0.68486091  0.77929425  1
  C  C333  1  0.33377642  0.71121865  0.82102654  1
  C  C334  1  0.45866438  0.73275605  0.69429120  1
  H  H335  1  0.32029660  0.67714752  0.82793810  1
  H  H336  1  0.48926711  0.65649882  0.61922495  1
  C  C337  1  0.26800604  0.74959888  0.85292868  1
  O  O338  1  0.25283262  0.70231340  0.86411602  1
  H  H339  1  0.37435138  0.74623226  0.57551586  1
  Cu  Cu340  1  0.25639183  0.51456929  0.67329511  1
  C  C341  1  0.31000577  0.75139215  0.83518558  1
  C  C342  1  0.38998879  0.75924089  0.77638223  1
  C  C343  1  0.43453965  0.76358553  0.76538578  1
  C  C344  1  0.35299227  0.86637344  0.57110470  1
  H  H345  1  0.47234445  0.88639793  0.53331382  1
  C  C346  1  0.47116344  0.86843535  0.99348583  1
  C  C347  1  0.28093975  0.89243403  0.57336007  1
  C  C348  1  0.48911272  0.80804113  0.83014117  1
  H  H349  1  0.31043224  0.82485869  0.84340203  1
  C  C350  1  0.32841383  0.98708833  0.60147887  1
  H  H351  1  0.42879961  0.81910842  0.89819732  1
  C  C352  1  0.33313294  0.94293554  0.65246699  1
  H  H353  1  0.43187661  0.97234134  0.97815628  1
  O  O354  1  0.38982753  0.87494218  0.60022984  1
  H  H355  1  0.47765717  0.84567979  0.66610949  1
  H  H356  1  0.43958758  0.87106723  0.96970349  1
  C  C357  1  0.26608603  0.85041897  0.52617110  1
  C  C358  1  0.42423122  0.83742377  0.55504505  1
  H  H359  1  0.41520023  0.80572262  0.60597916  1
  C  C360  1  0.35534547  0.94561947  0.76288850  1
  C  C361  1  0.32806627  0.79437979  0.83608414  1
  H  H362  1  0.26092028  0.91898764  0.60104152  1
  C  C363  1  0.36730359  0.79748077  0.80650528  1
  C  C364  1  0.46729235  0.85041414  0.56454934  1
  C  C365  1  0.44889067  0.79738287  0.83822753  1
  H  H366  1  0.48605310  0.82710737  0.50515169  1
  O  O367  1  0.37715084  0.97601793  0.82020575  1
  C  C368  1  0.32103317  0.89633649  0.59531252  1
  H  H369  1  0.36322416  0.91623651  0.82349311  1
  H  H370  1  0.38150470  0.83012997  0.80130245  1
  C  C371  1  0.49884764  0.84136486  0.93181527  1
  C  C372  1  0.33488603  0.82770376  0.50660062  1
  O  O373  1  0.55158794  0.04809513  0.13491998  1
  C  C374  1  0.57720971  0.08226206  0.17108479  1
  C  C375  1  0.59995358  0.08635661  0.30139270  1
  H  H376  1  0.59709314  0.11967661  0.34104103  1
  H  H377  1  0.59153294  0.05899265  0.37427221  1
  H  H378  1  0.59760735  0.08072557  0.08607220  1
  H  H379  1  0.63070080  0.08057795  0.29761316  1
  H  H380  1  0.51298631  0.09528646  0.21018519  1
  H  H381  1  0.74159131  0.18398553  0.24134257  1
  H  H382  1  0.53445797  0.02812233  0.33192243  1
  O  O383  1  0.67304556  0.16639587  0.48867293  1
  H  H384  1  0.55699799  0.11184477  0.15083916  1
  C  C385  1  0.51006778  0.00773361  0.36849958  1
  C  C386  1  0.72431048  0.01657994  0.05464660  1
  C  C387  1  0.68298332  0.01892881  0.01293702  1
  C  C388  1  0.61682352  0.00340887  0.04384250  1
  O  O389  1  0.61402513  0.49698010  0.18455149  1
  C  C390  1  0.62136466  0.45609940  0.23333651  1
  C  C391  1  0.73753116  0.41140235  0.14528229  1
  H  H392  1  0.60645496  0.38272769  0.45457615  1
  O  O393  1  0.63300477  0.30403968  0.40732269  1
  C  C394  1  0.68463253  0.46719691  0.10549195  1
  C  C395  1  0.72099000  0.44955153  0.08464418  1
  C  C396  1  0.66082472  0.44219127  0.19320120  1
  H  H397  1  0.73533561  0.47088475  0.01676901  1
  H  H398  1  0.65733529  0.38283981  0.31505342  1
  C  C399  1  0.67567774  0.40178060  0.24709603  1
  C  C400  1  0.71289462  0.38491729  0.22677009  1
  H  H401  1  0.72524970  0.35489229  0.27713825  1
  Cu  Cu402  1  0.71181280  0.45057556  0.48464472  1
  O  O403  1  0.59716409  0.43316695  0.27842510  1
  C  C404  1  0.70504771  0.15219736  0.80553616  1
  C  C405  1  0.70896618  0.16654598  0.68333214  1
  H  H406  1  0.68208422  0.13039826  0.83424245  1
  C  C407  1  0.67793742  0.14578505  0.59997801  1
  O  O408  1  0.65465389  0.11821136  0.63331065  1
  C  C409  1  0.63923792  0.04908561  0.85757706  1
  H  H410  1  0.63185968  0.06976898  0.77011035  1
  C  C411  1  0.67744374  0.04056463  0.89734366  1
  H  H412  1  0.70255485  0.05702375  0.85938814  1
  C  C413  1  0.73384639  0.16593945  0.89231670  1
  C  C414  1  0.73787703  0.19718581  0.64239074  1
  H  H415  1  0.57610387  0.02572439  0.67682871  1
  H  H416  1  0.73865694  0.20935090  0.54006529  1
  C  C417  1  0.55758786  0.03715342  0.75865455  1
  C  C418  1  0.60863104  0.02716477  0.92802360  1
  C  C419  1  0.56645774  0.03782401  0.89665834  1
  C  C420  1  0.50195642  0.05696134  0.95512271  1
  C  C421  1  0.52108747  0.05072682  0.74932782  1
  C  C422  1  0.54007768  0.04507329  0.99330356  1
  O  O423  1  0.74840227  0.03595071  0.99132579  1
  H  H424  1  0.73040476  0.15479499  0.99256078  1
  Cu  Cu425  1  0.67392075  0.22622427  0.51597065  1
  O  O426  1  0.74614719  0.40362933  0.50804214  1
  C  C427  1  0.67344089  0.40005318  0.74874077  1
  C  C428  1  0.62471954  0.39104090  0.54089151  1
  C  C429  1  0.62334364  0.43187918  0.60315543  1
  C  C430  1  0.64943700  0.35410594  0.57702684  1
  H  H431  1  0.71945545  0.45595331  0.79040572  1
  C  C432  1  0.65974497  0.48136752  0.76838298  1
  C  C433  1  0.65225835  0.43759546  0.70592095  1
  H  H434  1  0.60230190  0.45583316  0.57903301  1
  C  C435  1  0.69867894  0.48522065  0.80412452  1
  H  H436  1  0.69104018  0.33145945  0.72554442  1
  C  C437  1  0.67297337  0.35916454  0.68706897  1
  H  H438  1  0.69016323  0.40500460  0.84011352  1
  O  O439  1  0.67749332  0.28190964  0.53413948  1
  C  C440  1  0.65170936  0.31298071  0.50080255  1
  H  H441  1  0.60382233  0.64113562  0.18874134  1
  O  O442  1  0.57551797  0.71683613  0.19162302  1
  H  H443  1  0.71877841  0.61061242  0.29888982  1
  O  O444  1  0.66860456  0.54563050  0.30574071  1
  Cu  Cu445  1  0.61084521  0.54169388  0.30574076  1
  C  C446  1  0.72829320  0.60614920  0.39990962  1
  C  C447  1  0.60866000  0.64110861  0.08730565  1
  O  O448  1  0.60286782  0.58667102  0.42685780  1
  C  C449  1  0.68666053  0.53609069  0.40653188  1
  O  O450  1  0.64265682  0.64274633  0.42523637  1
  C  C451  1  0.61179806  0.62930249  0.45463804  1
  H  H452  1  0.63080877  0.57372660  0.09292100  1
  C  C453  1  0.71557256  0.56685571  0.46526538  1
  C  C454  1  0.57627733  0.71623053  0.07022667  1
  C  C455  1  0.62404286  0.60196551  0.03204264  1
  H  H456  1  0.73947364  0.58302076  0.04406709  1
  H  H457  1  0.67592739  0.50043525  0.06806795  1
  H  H458  1  0.73837169  0.70440090  0.21249818  1
  C  C459  1  0.59493766  0.67647639  0.00998760  1
  O  O460  1  0.55930371  0.74448443  0.00514745  1
  O  O461  1  0.67844224  0.50112533  0.46922184  1
  H  H462  1  0.73898196  0.64211303  0.05629017  1
  Cu  Cu463  1  0.54674389  0.75031337  0.31419480  1
  H  H464  1  0.68228863  0.90507583  0.00297942  1
  H  H465  1  0.51916300  0.99155872  0.45890150  1
  C  C466  1  0.61947552  0.89027830  0.02080941  1
  Cu  Cu467  1  0.51765244  0.76860875  0.06810539  1
  C  C468  1  0.65389703  0.99674914  0.08303491  1
  C  C469  1  0.58825195  0.88423726  0.11049261  1
  C  C470  1  0.70509110  0.89743878  0.23926895  1
  C  C471  1  0.65720996  0.89474260  0.06730351  1
  O  O472  1  0.73060498  0.90403962  0.15325904  1
  O  O473  1  0.71603538  0.89467326  0.35613619  1
  H  H474  1  0.70990717  0.80874773  0.45549736  1
  C  C475  1  0.51950829  0.90968227  0.12997894  1
  C  C476  1  0.64669071  0.81775010  0.46338036  1
  C  C477  1  0.66499293  0.89255069  0.20043417  1
  O  O478  1  0.73427772  0.99608539  0.16077527  1
  C  C479  1  0.63460380  0.88839393  0.28997301  1
  H  H480  1  0.57171420  0.88327315  0.30884108  1
  O  O481  1  0.57246158  0.79817364  0.37616492  1
  C  C482  1  0.59725434  0.88495340  0.24386202  1
  H  H483  1  0.59270667  0.98997393  0.09873165  1
  H  H484  1  0.64370444  0.81372004  0.35979648  1
  H  H485  1  0.63958372  0.88955987  0.39617195  1
  C  C486  1  0.57501511  0.81775223  0.49023099  1
  C  C487  1  0.54660407  0.87857654  0.06810183  1
  O  O488  1  0.52923513  0.93971868  0.21480324  1
  H  H489  1  0.66199254  0.97698159  0.16537822  1
  H  H490  1  0.58560931  0.70177492  0.81855131  1
  C  C491  1  0.61730475  0.63637372  0.81861251  1
  C  C492  1  0.59968258  0.67456777  0.87677180  1
  C  C493  1  0.56827858  0.72976351  0.61976387  1
  H  H494  1  0.62043291  0.63662315  0.71525087  1
  C  C495  1  0.62837500  0.59945783  0.89714055  1
  C  C496  1  0.68467052  0.55885034  0.89564099  1
  C  C497  1  0.64682142  0.55440605  0.85421583  1
  H  H498  1  0.58496342  0.58301872  0.72382077  1
  C  C499  1  0.53116653  0.71169823  0.64873942  1
  C  C500  1  0.72838585  0.55537559  0.58717447  1
  H  H501  1  0.71643590  0.52647557  0.64305900  1
  H  H502  1  0.69250354  0.59137733  0.93791826  1
  C  C503  1  0.56715157  0.55670710  0.77255426  1
  H  H504  1  0.57286553  0.55478315  0.87558073  1
  C  C505  1  0.71165721  0.52299038  0.87545349  1
  C  C506  1  0.51854906  0.66800179  0.60696643  1
  C  C507  1  0.59272875  0.70408101  0.54722205  1
  H  H508  1  0.74501289  0.70499121  0.64652157  1
  C  C509  1  0.63052190  0.51650055  0.79079640  1
  C  C510  1  0.52319728  0.56231254  0.74536995  1
  H  H511  1  0.51160494  0.55417711  0.64709413  1
  C  C512  1  0.54456028  0.64171110  0.53516681  1
  O  O513  1  0.59611506  0.51391297  0.74347418  1
  H  H514  1  0.50880944  0.53798848  0.81019379  1
  C  C515  1  0.58247771  0.65973231  0.51393430  1
  H  H516  1  0.53667041  0.60779132  0.50916957  1
  C  C517  1  0.50142446  0.74232901  0.70424880  1
  H  H518  1  0.51210733  0.59652724  0.76498283  1
  H  H519  1  0.62253673  0.71438853  0.53713188  1
  O  O520  1  0.73211476  0.91061949  0.73524174  1
  H  H521  1  0.61210577  0.89962372  0.92235646  1
  C  C522  1  0.56167029  0.93805598  0.81511186  1
  C  C523  1  0.68760312  0.82405328  0.64804948  1
  H  H524  1  0.57744841  0.76240310  0.65271772  1
  C  C525  1  0.53839461  0.84642154  0.97850010  1
  C  C526  1  0.74748281  0.87137812  0.73518467  1
  C  C527  1  0.66608533  0.96041892  0.67896078  1
  C  C528  1  0.61451596  0.82193730  0.54742810  1
  H  H529  1  0.67585403  0.98205075  0.60237072  1
  H  H530  1  0.56127040  0.82505588  0.93856469  1
  H  H531  1  0.56782314  0.90351112  0.64036516  1
  C  C532  1  0.55183466  0.90844709  0.72451248  1
  C  C533  1  0.51561827  0.77851501  0.76881035  1
  H  H534  1  0.65908698  0.83339936  0.83253854  1
  H  H535  1  0.59018310  0.83893448  0.73749831  1
  C  C536  1  0.69005411  0.91611900  0.68776980  1
  H  H537  1  0.54872989  0.93831932  0.91454321  1
  H  H538  1  0.66848382  0.97833896  0.77347859  1
  H  H539  1  0.72693946  0.76349732  0.62664457  1
  C  C540  1  0.74510510  0.78894311  0.68201170  1
  C  C541  1  0.72896286  0.83203218  0.69772355  1
  H  H542  1  0.68824244  0.89389242  0.59741351  1
  C  C543  1  0.65485364  0.83303855  0.72893086  1
  H  H544  1  0.54626615  0.78673259  0.78367638  1
  H  H545  1  0.58560752  0.96376785  0.80245623  1
  H  H546  1  0.63476718  0.95436716  0.66815141  1
  H  H547  1  0.67942376  0.89318275  0.77475934  1
  C  C548  1  0.61682402  0.83353143  0.67920964  1
  H  H549  1  0.53054187  0.88210561  0.74819024  1
  O  O550  1  0.54686210  0.83040430  0.54313264  1
  C  C551  1  0.68325326  0.81477600  0.51484438  1
  C  C552  1  0.94939198  0.15932957  0.27200564  1
  C  C553  1  0.79283360  0.16110117  0.35479971  1
  H  H554  1  0.89685917  0.10469866  0.36998540  1
  H  H555  1  0.82114665  0.14374818  0.33425104  1
  C  C556  1  0.86639941  0.03836007  0.38318079  1
  C  C557  1  0.91973740  0.17827791  0.34425880  1
  C  C558  1  0.89090054  0.19267913  0.14046370  1
  C  C559  1  0.95260401  0.15761651  0.13956349  1
  H  H560  1  0.83939383  0.06052912  0.14328411  1
  C  C561  1  0.88870806  0.19625868  0.27209855  1
  H  H562  1  0.77600954  0.14184963  0.43402893  1
  C  C563  1  0.92270494  0.17770896  0.06604816  1
  C  C564  1  0.86605675  0.04684287  0.10356398  1
  O  O565  1  0.80876066  0.20137499  0.43177005  1
  C  C566  1  0.85327203  0.20859113  0.07346425  1
  C  C567  1  0.98465469  0.13709685  0.34448397  1
  H  H568  1  0.97734566  0.14239920  0.08662916  1
  H  H569  1  0.88683136  0.01795920  0.32294615  1
  C  C570  1  0.87074549  0.08486682  0.40032572  1
  C  C571  1  0.83751936  0.01553816  0.45029352  1
  H  H572  1  0.86297225  0.21053256  0.31812741  1
  C  C573  1  0.76813065  0.16167868  0.23299356  1
  C  C574  1  0.89523338  0.07360138  0.05294459  1
  H  H575  1  0.89203062  0.11095692  0.06406541  1
  H  H576  1  0.78631817  0.18100209  0.15774688  1
  H  H577  1  0.92116497  0.18073067  0.45503474  1
  O  O578  1  0.98735309  0.14082080  0.45829303  1
  H  H579  1  0.75964434  0.12669831  0.18881847  1
  C  C580  1  0.87042273  0.00013443  0.08924535  1
  C  C581  1  0.84400178  0.10486664  0.48881728  1
  H  H582  1  0.94485408  0.07147896  0.48702645  1
  C  C583  1  0.84306546  0.40666246  0.06318298  1
  C  C584  1  0.84957278  0.35983270  0.04280488  1
  H  H585  1  0.85963503  0.49254028  0.13502002  1
  C  C586  1  0.82747883  0.29947930  0.48751869  1
  C  C587  1  0.84988487  0.25521770  0.10194497  1
  C  C588  1  0.80806367  0.42991918  0.09494970  1
  C  C589  1  0.77824644  0.39709984  0.11221468  1
  C  C590  1  0.81692560  0.33156762  0.05031821  1
  H  H591  1  0.83582921  0.28469727  0.39558832  1
  H  H592  1  0.75581180  0.33030111  0.11805165  1
  H  H593  1  0.80480885  0.48460327  0.01452799  1
  H  H594  1  0.87899777  0.34694699  0.02669627  1
  C  C595  1  0.78284654  0.35068932  0.09799717  1
  H  H596  1  0.79188706  0.35137861  0.39454609  1
  C  C597  1  0.88514596  0.47583255  0.08403644  1
  O  O598  1  0.79916298  0.47526827  0.10327450  1
  C  C599  1  0.82008503  0.27985572  0.04169516  1
  H  H600  1  0.87069002  0.27320720  0.16727700  1
  C  C601  1  0.80252594  0.33734026  0.48413022  1
  C  C602  1  0.88116262  0.43068924  0.03973525  1
  H  H603  1  0.89141482  0.11130834  0.84644815  1
  C  C604  1  0.88448594  0.21824653  0.67743185  1
  C  C605  1  0.92448527  0.11687961  0.84407741  1
  C  C606  1  0.93651017  0.15322252  0.76977883  1
  C  C607  1  0.94988022  0.08595476  0.90277706  1
  C  C608  1  0.81344107  0.06448845  0.84422954  1
  H  H609  1  0.84137424  0.06009768  0.79454175  1
  C  C610  1  0.80964417  0.11540645  0.88155671  1
  H  H611  1  0.80855945  0.13450571  0.79267514  1
  C  C612  1  0.90554906  0.17787564  0.68568848  1
  C  C613  1  0.85357960  0.22620231  0.59177246  1
  C  C614  1  0.89003533  0.14243290  0.61216853  1
  C  C615  1  0.97780975  0.15740575  0.75182388  1
  H  H616  1  0.90353466  0.11045220  0.62573466  1
  C  C617  1  0.76610145  0.19238915  0.85288636  1
  H  H618  1  0.79118146  0.05176721  0.77180448  1
  H  H619  1  0.78184416  0.11811955  0.93531533  1
  H  H620  1  0.79372779  0.10370393  0.60650203  1
  C  C621  1  0.76535620  0.21188311  0.72854825  1
  H  H622  1  0.78839792  0.23698349  0.69917401  1
  H  H623  1  0.99190239  0.18099799  0.68669006  1
  C  C624  1  0.91647476  0.03008745  0.62942567  1
  C  C625  1  0.94665177  0.04715390  0.57077723  1
  C  C626  1  0.99079281  0.08710577  0.88493347  1
  H  H627  1  0.81350077  0.04166601  0.93583270  1
  H  H628  1  0.88638569  0.03791990  0.59856274  1
  H  H629  1  0.97516484  0.03716937  0.60470522  1
  C  C630  1  0.79878220  0.21018445  0.93965477  1
  H  H631  1  0.78452764  0.01544975  0.57015999  1
  C  C632  1  0.85708231  0.15140283  0.53486276  1
  H  H633  1  0.92113192  0.00617927  0.71346003  1
  C  C634  1  0.83787353  0.19291991  0.50400532  1
  C  C635  1  0.80734785  0.03654781  0.52390377  1
  C  C636  1  0.81061481  0.08323230  0.54240095  1
  C  C637  1  0.83028311  0.18380952  0.98714594  1
  H  H638  1  0.92419568  0.17853307  0.96170314  1
  O  O639  1  0.83789795  0.13927829  0.95475033  1
  H  H640  1  0.89475871  0.24524203  0.74129787  1
  C  C641  1  0.92527440  0.05334394  0.97446035  1
  C  C642  1  0.93285790  0.00496506  0.98488185  1
  C  C643  1  0.94918658  0.47924248  0.99929641  1
  C  C644  1  0.94786150  0.43425473  0.96406927  1
  C  C645  1  0.79375099  0.25648134  0.96239412  1
  H  H646  1  0.91232839  0.37240401  0.97663212  1
  C  C647  1  0.85303036  0.49433116  0.78946069  1
  C  C648  1  0.92131462  0.48942863  0.71359864  1
  H  H649  1  0.87136039  0.39136779  0.64042096  1
  C  C650  1  0.82693051  0.29519496  0.71971079  1
  C  C651  1  0.83798396  0.27335823  0.59845277  1
  O  O652  1  0.93800643  0.37902081  0.57072736  1
  C  C653  1  0.91268907  0.44597201  0.66375850  1
  C  C654  1  0.94350491  0.41838846  0.60119162  1
  H  H655  1  0.79128167  0.34692384  0.81550308  1
  C  C656  1  0.76097643  0.39049543  0.61592891  1
  H  H657  1  0.82046417  0.43116642  0.75414996  1
  H  H658  1  0.76867077  0.27238660  0.92235057  1
  O  O659  1  0.97902294  0.43590267  0.60173954  1
  O  O660  1  0.75329441  0.40952819  0.71602172  1
  H  H661  1  0.78177544  0.48185519  0.76855125  1
  C  C662  1  0.84695232  0.45058115  0.73538527  1
  C  C663  1  0.80232415  0.33272647  0.72386893  1
  C  C664  1  0.87622387  0.42679720  0.67374265  1
  C  C665  1  0.79133421  0.35332683  0.60423758  1
  H  H666  1  0.83497183  0.27883253  0.81019987  1
  H  H667  1  0.97318752  0.42304254  0.91299796  1
  C  C668  1  0.91407698  0.40905225  0.99012250  1
  C  C669  1  0.79877697  0.69147376  0.26593469  1
  C  C670  1  0.83352469  0.66782374  0.23590394  1
  H  H671  1  0.85971780  0.67618953  0.29247284  1
  H  H672  1  0.86479651  0.61906748  0.12022467  1
  C  C673  1  0.83611421  0.63265912  0.15005684  1
  C  C674  1  0.79977074  0.62039797  0.08884697  1
  H  H675  1  0.92094214  0.53656009  0.08333488  1
  C  C676  1  0.76437587  0.68276014  0.20001450  1
  C  C677  1  0.76454021  0.64631545  0.11525321  1
  O  O678  1  0.99207918  0.51933890  0.33144396  1
  H  H679  1  0.87378825  0.53366759  0.44390875  1
  C  C680  1  0.91876697  0.50151190  0.06397551  1
  C  C681  1  0.79903575  0.72777113  0.36439085  1
  O  O682  1  0.83356121  0.73860864  0.40534058  1
  H  H683  1  0.81384293  0.58548407  0.46366367  1
  H  H684  1  0.82747687  0.50311808  0.45713296  1
  H  H685  1  0.76556844  0.66582640  0.41211719  1
  C  C686  1  0.75471838  0.63473586  0.46002843  1
  O  O687  1  0.77087987  0.74776084  0.39521422  1
  C  C688  1  0.79967130  0.58203511  0.00055605  1
  C  C689  1  0.89581603  0.83010694  0.46674419  1
  O  O690  1  0.91209216  0.78330905  0.19532141  1
  C  C691  1  0.90489409  0.97885649  0.04035362  1
  O  O692  1  0.86667809  0.83443952  0.17209171  1
  H  H693  1  0.97113089  0.79333598  0.06414651  1
  Cu  Cu694  1  0.77046659  0.94481938  0.17622421  1
  O  O695  1  0.90090878  0.78960487  0.43702241  1
  C  C696  1  0.95936337  0.82244758  0.00494991  1
  O  O697  1  0.81110503  0.94343005  0.47447281  1
  C  C698  1  0.89944674  0.81638381  0.13645589  1
  O  O699  1  0.86696871  0.94806722  0.37678536  1
  Cu  Cu700  1  0.94457162  0.88940607  0.33377456  1
  O  O701  1  0.90056432  0.86773833  0.40666135  1
  C  C702  1  0.83946866  0.96602995  0.43456556  1
  C  C703  1  0.84199600  0.96912565  0.14047028  1
  C  C704  1  0.92024599  0.83653578  0.03111881  1
  Cu  Cu705  1  0.76477148  0.92128265  0.40563003  1
  O  O706  1  0.99011628  0.90616686  0.26045165  1
  H  H707  1  0.90864646  0.94095177  0.04504138  1
  Cu  Cu708  1  0.87536563  0.76302783  0.30535917  1
  O  O709  1  0.84650607  0.92628530  0.13438009  1
  Cu  Cu710  1  0.87003770  0.89235859  0.27024005  1
  O  O711  1  0.81052663  0.98464060  0.18763038  1
  H  H712  1  0.97524362  0.96072085  0.46631998  1
  C  C713  1  0.85514483  0.68317298  0.69468214  1
  C  C714  1  0.89772890  0.67945900  0.72629739  1
  C  C715  1  0.77576064  0.69899863  0.66042281  1
  H  H716  1  0.89642628  0.54271499  0.82135736  1
  C  C717  1  0.92600627  0.71389576  0.70990982  1
  C  C718  1  0.89124455  0.51118398  0.77197274  1
  C  C719  1  0.96381642  0.70479345  0.73808414  1
  C  C720  1  0.82353875  0.52155355  0.85885544  1
  C  C721  1  0.84149186  0.72562681  0.71452313  1
  C  C722  1  0.79354472  0.65846664  0.64076720  1
  C  C723  1  0.83355415  0.64624629  0.64295094  1
  O  O724  1  0.84956190  0.60811681  0.60610052  1
  C  C725  1  0.90674484  0.63623056  0.78161863  1
  C  C726  1  0.97238180  0.66166309  0.78968336  1
  C  C727  1  0.94575106  0.62488568  0.80663059  1
  H  H728  1  0.95524178  0.58979914  0.83276993  1
  H  H729  1  0.88591003  0.61182347  0.80826645  1
  C  C730  1  0.76592507  0.62272716  0.58552190  1
  H  H731  1  0.80608419  0.55709908  0.61831852  1
  H  H732  1  0.94955676  0.50628639  0.70221581  1
  C  C733  1  0.80099603  0.73485311  0.70104983  1
  H  H734  1  0.98609162  0.73097580  0.72565223  1
  C  C735  1  0.78649085  0.50944308  0.83913363  1
  C  C736  1  0.83464968  0.56114428  0.94106865  1
  C  C737  1  0.76301774  0.56648773  0.98219021  1
  C  C738  1  0.75006406  0.58672543  0.65681761  1
  C  C739  1  0.82781006  0.56985156  0.55224968  1
  C  C740  1  0.75334343  0.52923811  0.90208705  1
  H  H741  1  0.75658113  0.57968018  0.76229077  1
  H  H742  1  0.91861425  0.74460381  0.66030264  1
  O  O743  1  0.86628692  0.57561157  0.95543673  1
  H  H744  1  0.86114788  0.50694085  0.58917300  1
  O  O745  1  0.98138315  0.55090643  0.99761493  1
  C  C746  1  0.97974438  0.51078313  0.95949733  1
  C  C747  1  0.84895215  0.52596112  0.50443347  1
  H  H748  1  0.87189311  0.88008633  0.97938109  1
  H  H749  1  0.95870136  0.98848573  0.94520229  1
  C  C750  1  0.98732225  0.91269367  0.76004420  1
  C  C751  1  0.88731113  0.87282015  0.52183331  1
  C  C752  1  0.78492426  0.78083192  0.71983546  1
  H  H753  1  0.82221047  0.95363415  0.93682444  1
  C  C754  1  0.80937402  0.89841977  0.80703129  1
  H  H755  1  0.91209229  0.92219842  0.81338302  1
  H  H756  1  0.83261938  0.80753771  0.82713895  1
  C  C757  1  0.78800958  0.85872914  0.78067462  1
  C  C758  1  0.87264534  0.94014047  0.65248208  1
  C  C759  1  0.92442504  0.89575667  0.87181260  1
  C  C760  1  0.99063919  0.94790866  0.55329719  1
  H  H761  1  0.85696546  0.87081384  0.70081192  1
  H  H762  1  0.86192053  0.75370525  0.74434843  1
  H  H763  1  0.88792624  0.95971723  0.58457477  1
  C  C764  1  0.85527310  0.95865897  0.76177136  1
  H  H765  1  0.86249184  0.99413729  0.76930653  1
  C  C766  1  0.82806090  0.93672892  0.84692530  1
  C  C767  1  0.80479651  0.81447178  0.78814374  1
  C  C768  1  0.96435414  0.88545708  0.85307122  1
  H  H769  1  0.93829295  0.92174721  0.62937037  1
  C  C770  1  0.96850405  0.92787252  0.64831743  1
  C  C771  1  0.97983113  0.84805613  0.92299367  1
  C  C772  1  0.90361553  0.87274078  0.96581887  1
  C  C773  1  0.87270913  0.89213884  0.63325183  1
