# generated using pymatgen
data_CuH15C22O5
_symmetry_space_group_name_H-M   'P 1'
_cell_length_a   29.20835682
_cell_length_b   28.33327637
_cell_length_c   11.92313368
_cell_angle_alpha   90.00000000
_cell_angle_beta   90.00000000
_cell_angle_gamma   90.00000000
_symmetry_Int_Tables_number   1
_chemical_formula_structural   CuH15C22O5
_chemical_formula_sum   'Cu18 H270 C396 O90'
_cell_volume   9867.20921285
_cell_formula_units_Z   18
loop_
 _symmetry_equiv_pos_site_id
 _symmetry_equiv_pos_as_xyz
  1  'x, y, z'
loop_
 _atom_site_type_symbol
 _atom_site_label
 _atom_site_symmetry_multiplicity
 _atom_site_fract_x
 _atom_site_fract_y
 _atom_site_fract_z
 _atom_site_occupancy
  H  H0  1  0.10758094  0.18419195  0.29045605  1
  C  C1  1  0.07226581  0.16989295  0.29240875  1
  C  C2  1  0.06237507  0.12919704  0.35559740  1
  C  C3  1  0.09964516  0.10774855  0.42076281  1
  Cu  Cu4  1  0.18460664  0.09004724  0.35440560  1
  O  O5  1  0.20519204  0.11574288  0.22552539  1
  O  O6  1  0.13938698  0.12593399  0.41988160  1
  C  C7  1  0.03480107  0.19565267  0.25677872  1
  C  C8  1  0.09967040  0.01971539  0.19293926  1
  C  C9  1  0.01736545  0.01688826  0.17048086  1
  C  C10  1  0.02002462  0.05199280  0.08573518  1
  C  C11  1  0.10345675  0.05562029  0.11124234  1
  H  H12  1  0.13405760  0.07530947  0.10002472  1
  C  C13  1  0.06426134  0.06958690  0.05157795  1
  H  H14  1  0.03504319  0.23315527  0.23856593  1
  O  O15  1  0.17725941  0.01910289  0.22852649  1
  C  C16  1  0.01778880  0.10960126  0.36311171  1
  H  H17  1  0.02379339  0.19095964  0.05751587  1
  Cu  Cu18  1  0.20405199  0.01849966  0.07908838  1
  C  C19  1  0.05701180  0.00038765  0.22161624  1
  C  C20  1  0.13959217  0.00205548  0.25401019  1
  O  O21  1  0.09335697  0.07248548  0.48351603  1
  H  H22  1  0.01104212  0.07593585  0.41168527  1
  O  O23  1  0.21050301  0.08599835  0.49812286  1
  H  H24  1  0.01296358  0.12936825  0.06436665  1
  C  C25  1  0.00063694  0.21573385  0.01434082  1
  C  C26  1  0.24318323  0.09779319  0.19119338  1
  O  O27  1  0.24294590  0.07137362  0.10794344  1
  H  H28  1  0.09668583  0.22787912  0.01916779  1
  Cu  Cu29  1  0.17036976  0.44812647  0.24538793  1
  O  O30  1  0.21797671  0.48571928  0.24033247  1
  C  C31  1  0.00700718  0.26573832  0.02453468  1
  H  H32  1  0.00524417  0.33881026  0.16845022  1
  C  C33  1  0.04338080  0.49321866  0.11592567  1
  C  C34  1  0.07921857  0.34126722  0.21293164  1
  C  C35  1  0.02065938  0.48493354  0.22063635  1
  H  H36  1  0.04882662  0.40995868  0.00000401  1
  C  C37  1  0.04039920  0.32325626  0.16224598  1
  C  C38  1  0.12923303  0.28351839  0.12402267  1
  Cu  Cu39  1  0.23955895  0.38960325  0.13518631  1
  O  O40  1  0.15712676  0.38929150  0.29442909  1
  H  H41  1  0.03553871  0.46076470  0.28326146  1
  O  O42  1  0.20140499  0.34303627  0.19278088  1
  C  C43  1  0.16193380  0.35355623  0.22862455  1
  C  C44  1  0.12472288  0.32705236  0.18235450  1
  O  O45  1  0.11200463  0.47939987  0.02795119  1
  H  H46  1  0.16373343  0.26893747  0.11202170  1
  H  H47  1  0.08048513  0.37372502  0.26274112  1
  C  C48  1  0.09166746  0.26159570  0.07361171  1
  O  O49  1  0.10900693  0.45258207  0.20147272  1
  C  C50  1  0.04780284  0.28327844  0.09291556  1
  C  C51  1  0.09141965  0.47211083  0.11355598  1
  H  H52  1  0.07314760  0.33957755  0.42666204  1
  C  C53  1  0.04518292  0.33834472  0.49338346  1
  O  O54  1  0.11939154  0.08814250  0.77610508  1
  C  C55  1  0.18248700  0.13147224  0.86264521  1
  C  C56  1  0.13379012  0.12927133  0.83435482  1
  H  H57  1  0.19995835  0.06955093  0.76996151  1
  C  C58  1  0.21304475  0.09790524  0.82481568  1
  Cu  Cu59  1  0.10792204  0.07862355  0.63781239  1
  O  O60  1  0.10602024  0.15878572  0.85716287  1
  Cu  Cu61  1  0.08201638  0.03774913  0.82013651  1
  O  O62  1  0.16774862  0.04291200  0.61403165  1
  C  C63  1  0.20548941  0.05490705  0.57541915  1
  O  O64  1  0.00324767  0.05707664  0.65502276  1
  C  C65  1  0.19671225  0.16951692  0.93633127  1
  C  C66  1  0.01104112  0.01751228  0.68148165  1
  H  H67  1  0.06914152  0.09470928  0.98377877  1
  C  C68  1  0.24206994  0.17593408  0.96565414  1
  O  O69  1  0.13011902  0.00268297  0.89305586  1
  C  C70  1  0.24705253  0.03017066  0.60957481  1
  O  O71  1  0.05021779  0.00525652  0.72549666  1
  H  H72  1  0.17190422  0.19350786  0.96550708  1
  C  C73  1  0.03649621  0.37948474  0.94689131  1
  C  C74  1  0.07809206  0.34847170  0.91503334  1
  O  O75  1  0.05337925  0.41613474  0.68312275  1
  H  H76  1  0.02097386  0.39518074  0.86568074  1
  C  C77  1  0.12719788  0.48345166  0.72494315  1
  C  C78  1  0.05339741  0.45260871  0.63133108  1
  H  H79  1  0.06849081  0.31383426  0.87947286  1
  H  H80  1  0.12892329  0.45069416  0.78156299  1
  H  H81  1  0.10315009  0.36433740  0.85485128  1
  C  C82  1  0.20462053  0.48484064  0.95569769  1
  H  H83  1  0.03696118  0.37540469  0.52092572  1
  O  O84  1  0.01756123  0.46523015  0.56419196  1
  H  H85  1  0.06046567  0.32006841  0.56538041  1
  C  C86  1  0.09086208  0.48828094  0.64681597  1
  O  O87  1  0.23729590  0.38986066  0.98102394  1
  H  H88  1  0.09868618  0.34046699  0.99259210  1
  H  H89  1  0.17589664  0.45949496  0.95979472  1
  C  C90  1  0.10908420  0.62599171  0.16838240  1
  H  H91  1  0.05736676  0.57309251  0.13369251  1
  C  C92  1  0.13625653  0.71618524  0.09602181  1
  H  H93  1  0.12834228  0.64394842  0.23883457  1
  O  O94  1  0.15212322  0.60629632  0.10818326  1
  H  H95  1  0.10014620  0.65141850  0.09973366  1
  C  C96  1  0.06760325  0.59725809  0.20798446  1
  H  H97  1  0.07638112  0.57248387  0.27913901  1
  H  H98  1  0.03693057  0.61883797  0.23004310  1
  C  C99  1  0.18079487  0.63516452  0.05801395  1
  C  C100  1  0.17567131  0.68553345  0.05114331  1
  H  H101  1  0.18055996  0.72921309  0.24764153  1
  C  C102  1  0.15121504  0.74020610  0.19678501  1
  C  C103  1  0.09541310  0.72830007  0.03484582  1
  H  H104  1  0.24952962  0.56754034  0.20181095  1
  C  C105  1  0.02486575  0.51923003  0.03137675  1
  C  C106  1  0.20365560  0.71744665  0.00061106  1
  H  H107  1  0.16308193  0.54414505  0.00756275  1
  C  C108  1  0.13581082  0.88814003  0.00530534  1
  C  C109  1  0.05652785  0.83141623  0.20804873  1
  H  H110  1  0.19593219  0.75535808  0.01498446  1
  H  H111  1  0.03782233  0.77835051  0.01883422  1
  O  O112  1  0.16869454  0.97091933  0.03576595  1
  C  C113  1  0.19199972  0.85353964  0.33900484  1
  H  H114  1  0.12755845  0.79958360  0.30527765  1
  C  C115  1  0.01489792  0.94775996  0.43793431  1
  H  H116  1  0.23313928  0.88036991  0.14920226  1
  O  O117  1  0.02214790  0.84530392  0.16359750  1
  C  C118  1  0.24056131  0.84183379  0.31123308  1
  H  H119  1  0.13934973  0.81249069  0.02514723  1
  H  H120  1  0.15883375  0.89539150  0.07639266  1
  C  C121  1  0.06792725  0.76626024  0.06818939  1
  O  O122  1  0.16523103  0.87807634  0.27760526  1
  O  O123  1  0.17914392  0.83639057  0.42851779  1
  C  C124  1  0.01303471  0.89806649  0.45606861  1
  C  C125  1  0.12181751  0.77581653  0.23055968  1
  Cu  Cu126  1  0.10846619  0.90608751  0.31151898  1
  C  C127  1  0.08251466  0.78992187  0.16759398  1
  O  O128  1  0.07515970  0.85114576  0.29688513  1
  H  H129  1  0.03799974  0.97391124  0.48073616  1
  O  O130  1  0.13555249  0.96966197  0.32840601  1
  H  H131  1  0.05506221  0.97020370  0.27990380  1
  C  C132  1  0.15460890  0.63604697  0.72272188  1
  H  H133  1  0.12148705  0.62238047  0.75542312  1
  C  C134  1  0.16519934  0.68515824  0.72574402  1
  C  C135  1  0.15625926  0.55666924  0.66710876  1
  C  C136  1  0.18516949  0.60151768  0.68637899  1
  C  C137  1  0.07809853  0.69965100  0.74253273  1
  C  C138  1  0.12385356  0.71520030  0.76135434  1
  H  H139  1  0.07296678  0.66694376  0.69356343  1
  C  C140  1  0.20964223  0.69970873  0.68469278  1
  C  C141  1  0.03839303  0.72141810  0.78099793  1
  C  C142  1  0.22745441  0.61365279  0.63485212  1
  C  C143  1  0.23621786  0.66300633  0.63888551  1
  H  H144  1  0.22154098  0.73732998  0.66986068  1
  C  C145  1  0.12165249  0.56134012  0.58252138  1
  C  C146  1  0.16220082  0.51573260  0.73489250  1
  C  C147  1  0.22972805  0.56999001  0.96352117  1
  H  H148  1  0.19260232  0.51096303  0.78625991  1
  H  H149  1  0.08943949  0.70779993  0.95690739  1
  H  H150  1  0.00626821  0.64069440  0.88682683  1
  C  C151  1  0.08729948  0.52767896  0.57563632  1
  H  H152  1  0.20881560  0.52651791  0.55757054  1
  C  C153  1  0.24225705  0.53117565  0.59369107  1
  C  C154  1  0.24156709  0.69967539  0.93534131  1
  C  C155  1  0.21917996  0.61988320  0.99264391  1
  C  C156  1  0.24618141  0.65082631  0.92809859  1
  C  C157  1  0.19659383  0.53302217  0.97591815  1
  H  H158  1  0.23865809  0.53065476  0.68544569  1
  H  H159  1  0.04105419  0.52358909  0.94819587  1
  H  H160  1  0.06197555  0.52687417  0.50549030  1
  H  H161  1  0.12218395  0.59314776  0.52812398  1
  Cu  Cu162  1  0.13394513  0.86836723  0.50399821  1
  H  H163  1  0.20426723  0.91623154  0.83410876  1
  C  C164  1  0.04152069  0.76799116  0.82902601  1
  C  C165  1  0.12873267  0.76200065  0.79954137  1
  C  C166  1  0.12779317  0.84165399  0.97757053  1
  C  C167  1  0.12196448  0.92174167  0.92394228  1
  H  H168  1  0.01157308  0.92604866  0.74151574  1
  O  O169  1  0.04247790  0.83150655  0.55666468  1
  H  H170  1  0.16333093  0.77758187  0.80134886  1
  C  C171  1  0.13974638  0.96840005  0.95262214  1
  H  H172  1  0.01490468  0.97891782  0.99711148  1
  H  H173  1  0.08699986  0.93947662  0.76711102  1
  C  C174  1  0.20021210  0.85001504  0.67452915  1
  H  H175  1  0.21584147  0.98103081  0.73086087  1
  C  C176  1  0.09879674  0.83246324  0.88331547  1
  C  C177  1  0.07782416  0.86607339  0.81057437  1
  O  O178  1  0.17169384  0.87616415  0.63216232  1
  C  C179  1  0.24608014  0.77911700  0.85353202  1
  H  H180  1  0.21170669  0.78443463  0.87880247  1
  O  O181  1  0.01031698  0.79663082  0.86357511  1
  C  C182  1  0.23131080  0.89062847  0.84262940  1
  C  C183  1  0.08818667  0.78387813  0.83096910  1
  H  H184  1  0.19758073  0.81677920  0.61951981  1
  C  C185  1  0.23188303  0.85102130  0.76600416  1
  H  H186  1  0.05962446  0.85668679  0.73522740  1
  C  C187  1  0.04575344  0.87299090  0.52804265  1
  C  C188  1  0.09397162  0.91205693  0.82976044  1
  O  O189  1  0.08124228  0.89884263  0.56469113  1
  C  C190  1  0.24731741  0.99653730  0.69759134  1
  H  H191  1  0.01612467  0.89713223  0.99588297  1
  O  O192  1  0.46479007  0.07893714  0.37607063  1
  C  C193  1  0.32678969  0.07629083  0.22668363  1
  C  C194  1  0.36616883  0.08044427  0.29161713  1
  H  H195  1  0.39730505  0.06172152  0.26277733  1
  C  C196  1  0.28529195  0.13169596  0.35208154  1
  C  C197  1  0.28550762  0.10245545  0.25447911  1
  C  C198  1  0.36464771  0.10676854  0.39430689  1
  C  C199  1  0.32360044  0.13398892  0.42169663  1
  H  H200  1  0.32532919  0.05286852  0.15274322  1
  O  O201  1  0.32360785  0.19158906  0.09255116  1
  C  C202  1  0.38622009  0.19845684  0.26621539  1
  C  C203  1  0.46510038  0.19586810  0.08671249  1
  H  H204  1  0.36777888  0.17239717  0.32343205  1
  H  H205  1  0.41193165  0.17945765  0.21892564  1
  H  H206  1  0.40324684  0.22514568  0.31877924  1
  C  C207  1  0.35042177  0.22284994  0.18863021  1
  C  C208  1  0.42979613  0.21893160  0.03061420  1
  C  C209  1  0.47030429  0.14696108  0.06635379  1
  H  H210  1  0.25313308  0.14727594  0.37555000  1
  H  H211  1  0.28958762  0.06655882  0.48701501  1
  C  C212  1  0.44920054  0.10108918  0.46422089  1
  H  H213  1  0.31825805  0.23335007  0.22930720  1
  H  H214  1  0.25714235  0.20684144  0.00994330  1
  H  H215  1  0.43921386  0.01119822  0.29427031  1
  H  H216  1  0.31955312  0.15985024  0.48802213  1
  H  H217  1  0.44670085  0.12731256  0.00849869  1
  H  H218  1  0.43931800  0.00026107  0.09378570  1
  H  H219  1  0.48531028  0.21711414  0.14155391  1
  C  C220  1  0.40247260  0.11361154  0.47964623  1
  H  H221  1  0.34818995  0.45200686  0.19089480  1
  O  O222  1  0.44339960  0.30595816  0.05949671  1
  C  C223  1  0.25920415  0.47196811  0.22990072  1
  H  H224  1  0.36917677  0.25188813  0.13680325  1
  H  H225  1  0.27072382  0.48816328  0.46101752  1
  C  C226  1  0.34003729  0.49034207  0.18145304  1
  O  O227  1  0.26943552  0.42828580  0.22915408  1
  C  C228  1  0.42357451  0.27084359  0.03111472  1
  C  C229  1  0.38766533  0.15240492  0.78106131  1
  C  C230  1  0.34201238  0.14376219  0.80847910  1
  C  C231  1  0.32318520  0.15951311  0.91117039  1
  H  H232  1  0.31796545  0.12719340  0.74895779  1
  C  C233  1  0.41350374  0.13948027  0.67422615  1
  H  H234  1  0.28483954  0.07819635  0.81841795  1
  C  C235  1  0.46096705  0.13775024  0.65418625  1
  H  H236  1  0.34946569  0.13243700  0.60097108  1
  C  C237  1  0.38526955  0.12988662  0.58278276  1
  C  C238  1  0.27377766  0.14423254  0.91308158  1
  C  C239  1  0.41244736  0.17972807  0.86168044  1
  C  C240  1  0.25878532  0.10281214  0.85245211  1
  C  C241  1  0.32797415  0.02213991  0.59604083  1
  C  C242  1  0.47720002  0.11847758  0.55479148  1
  H  H243  1  0.44771920  0.18887192  0.85268172  1
  C  C244  1  0.28838423  0.04454148  0.56137294  1
  H  H245  1  0.48550863  0.14927308  0.71935976  1
  H  H246  1  0.36101318  0.03106503  0.55260391  1
  C  C247  1  0.39251070  0.19205044  0.96421005  1
  H  H248  1  0.48738577  0.01459691  0.64150270  1
  C  C249  1  0.34620089  0.18301057  0.99767490  1
  H  H250  1  0.48693628  0.47160636  0.84159904  1
  H  H251  1  0.27042960  0.45884873  0.59891678  1
  H  H252  1  0.47497664  0.44782825  0.97941216  1
  C  C253  1  0.27669841  0.49333958  0.55285414  1
  C  C254  1  0.26501905  0.42176807  0.93608235  1
  O  O255  1  0.29935651  0.40823549  0.89588603  1
  C  C256  1  0.25068741  0.47321658  0.93184098  1
  H  H257  1  0.32097899  0.49931410  0.89589944  1
  C  C258  1  0.49737807  0.47405611  0.92923010  1
  H  H259  1  0.39098788  0.28949813  0.98632986  1
  C  C260  1  0.31871240  0.58583129  0.15110712  1
  H  H261  1  0.30918936  0.62406252  0.14296201  1
  H  H262  1  0.36431826  0.66115224  0.17753398  1
  C  C263  1  0.28486486  0.55485526  0.18185662  1
  C  C264  1  0.39654662  0.65066950  0.13929221  1
  H  H265  1  0.35452758  0.73460537  0.23925979  1
  C  C266  1  0.36501240  0.57064366  0.13687642  1
  O  O267  1  0.42740741  0.69468622  0.36242454  1
  C  C268  1  0.40952574  0.72213194  0.43363503  1
  H  H269  1  0.35775553  0.64606366  0.36871906  1
  C  C270  1  0.41623727  0.73860022  0.12740254  1
  C  C271  1  0.40229515  0.60398730  0.10938657  1
  C  C272  1  0.42732486  0.68709205  0.10000119  1
  C  C273  1  0.34269944  0.66627651  0.43656470  1
  C  C274  1  0.37402419  0.52020721  0.15332535  1
  Cu  Cu275  1  0.48878347  0.69310904  0.31011039  1
  C  C276  1  0.29377655  0.50678128  0.20083537  1
  H  H277  1  0.27986716  0.62506033  0.45847922  1
  C  C278  1  0.30028573  0.65577557  0.48400063  1
  C  C279  1  0.36528957  0.70717009  0.47651036  1
  H  H280  1  0.40863066  0.50550310  0.14063906  1
  C  C281  1  0.46969191  0.67079140  0.05978039  1
  H  H282  1  0.49668663  0.69669264  0.05273559  1
  C  C283  1  0.44177392  0.58760662  0.04533497  1
  C  C284  1  0.47559045  0.62380348  0.03439506  1
  O  O285  1  0.49996029  0.58688920  0.33766073  1
  O  O286  1  0.44388182  0.54427661  0.01115851  1
  O  O287  1  0.42842562  0.76164622  0.46009293  1
  C  C288  1  0.27936003  0.96828429  0.04726920  1
  H  H289  1  0.32966439  0.77668723  0.40409419  1
  C  C290  1  0.37853858  0.75735859  0.18878877  1
  C  C291  1  0.25530456  0.85880951  0.20793287  1
  C  C292  1  0.33048355  0.82158441  0.24926908  1
  H  H293  1  0.28219881  0.92130683  0.46793902  1
  H  H294  1  0.28436792  0.99976304  0.10205555  1
  C  C295  1  0.48169040  0.83754691  0.02590404  1
  H  H296  1  0.45729130  0.94942917  0.27964091  1
  C  C297  1  0.37063581  0.80548995  0.18382569  1
  H  H298  1  0.31520001  0.86826415  0.10560632  1
  H  H299  1  0.47556060  0.99034082  0.46606295  1
  H  H300  1  0.39631233  0.96532686  0.30711992  1
  C  C301  1  0.43847397  0.81794480  0.07669196  1
  H  H302  1  0.46459838  0.91437052  0.11699673  1
  Cu  Cu303  1  0.49227043  0.76637713  0.47114237  1
  H  H304  1  0.44527189  0.93518329  0.48507391  1
  C  C305  1  0.43294171  0.97546985  0.32238192  1
  C  C306  1  0.26777948  0.81243779  0.38078426  1
  O  O307  1  0.39086600  0.88422668  0.12596003  1
  C  C308  1  0.39948697  0.83971461  0.12501361  1
  C  C309  1  0.30162832  0.85104031  0.18088860  1
  O  O310  1  0.49916378  0.79439128  0.33879284  1
  C  C311  1  0.44233411  0.97252917  0.45314957  1
  C  C312  1  0.44870340  0.76967108  0.07660610  1
  C  C313  1  0.31092293  0.80076576  0.34908060  1
  H  H314  1  0.33301299  0.88068890  0.44612982  1
  C  C315  1  0.43139676  0.91944846  0.06798718  1
  H  H316  1  0.25371355  0.80270066  0.46611176  1
  H  H317  1  0.48138570  0.75992079  0.03172965  1
  C  C318  1  0.42083125  0.97189708  0.04348737  1
  H  H319  1  0.38396334  0.97723753  0.06274961  1
  H  H320  1  0.33873276  0.70929693  0.90106224  1
  C  C321  1  0.45546945  0.71995213  0.78491121  1
  H  H322  1  0.39189426  0.70459933  0.86958564  1
  C  C323  1  0.41080152  0.73043732  0.81836787  1
  C  C324  1  0.30400520  0.71908092  0.61345413  1
  C  C325  1  0.27054420  0.73790195  0.88574786  1
  C  C326  1  0.31918275  0.73854590  0.87018391  1
  H  H327  1  0.27236662  0.63611683  0.86935905  1
  H  H328  1  0.47169453  0.68759756  0.81975592  1
  H  H329  1  0.28950092  0.74373282  0.68219969  1
  C  C330  1  0.27443896  0.55511525  0.93346766  1
  C  C331  1  0.28078454  0.67771905  0.57839106  1
  H  H332  1  0.49417053  0.54995062  0.88622268  1
  C  C333  1  0.28529361  0.50841988  0.91546170  1
  H  H334  1  0.30093911  0.58316514  0.92407088  1
  H  H335  1  0.31268406  0.50475068  0.56703872  1
  C  C336  1  0.49061610  0.52745986  0.96002527  1
  C  C337  1  0.34543200  0.73201782  0.56571326  1
  O  O338  1  0.25657043  0.58323919  0.58720608  1
  H  H339  1  0.47612317  0.81731583  0.62167675  1
  C  C340  1  0.49046080  0.81926909  0.91559605  1
  H  H341  1  0.33712832  0.93241144  0.52875432  1
  H  H342  1  0.28408435  0.94776251  0.79593623  1
  H  H343  1  0.28840284  0.86255792  0.93214673  1
  O  O344  1  0.33134652  0.84259262  0.67870769  1
  C  C345  1  0.37265666  0.96076414  0.71009802  1
  C  C346  1  0.47671528  0.75048756  0.70927102  1
  C  C347  1  0.36772978  0.93657404  0.81718840  1
  C  C348  1  0.33124491  0.98827045  0.68343106  1
  H  H349  1  0.34118414  0.94300417  0.88231281  1
  H  H350  1  0.28705934  0.90041451  0.68726406  1
  C  C351  1  0.27303170  0.93443274  0.98510266  1
  C  C352  1  0.26756463  0.81306281  0.78807134  1
  C  C353  1  0.44947900  0.93651579  0.67780323  1
  C  C354  1  0.38877353  0.77347880  0.78292218  1
  H  H355  1  0.46504851  0.79802860  0.86836162  1
  C  C356  1  0.41071198  0.96068326  0.63787849  1
  C  C357  1  0.40891682  0.91564771  0.83398578  1
  H  H358  1  0.36184115  0.76178427  0.60037612  1
  C  C359  1  0.28739554  0.97763923  0.73361581  1
  C  C360  1  0.30044336  0.87876241  0.61776682  1
  C  C361  1  0.33863305  0.77456115  0.80396114  1
  C  C362  1  0.45635678  0.79227364  0.67157462  1
  H  H363  1  0.43181472  0.97595050  0.94984938  1
  H  H364  1  0.43308053  0.89654308  0.99174866  1
  C  C365  1  0.41537458  0.80806043  0.72235439  1
  C  C366  1  0.26639262  0.89275248  0.92240038  1
  H  H367  1  0.27068640  0.85647897  0.59581516  1
  C  C368  1  0.31467236  0.81401108  0.75227577  1
  H  H369  1  0.40060497  0.84249211  0.70959839  1
  C  C370  1  0.44739051  0.90766664  0.78186420  1
  H  H371  1  0.47681901  0.88858978  0.81911547  1
  C  C372  1  0.49531565  0.93973460  0.62345367  1
  C  C373  1  0.31262739  0.90457690  0.50983286  1
  O  O374  1  0.40820609  0.98469228  0.53681197  1
  H  H375  1  0.71066171  0.15354065  0.06031748  1
  C  C376  1  0.53923748  0.02680931  0.30418911  1
  H  H377  1  0.52970557  0.10436470  0.33236779  1
  C  C378  1  0.51733928  0.06941228  0.36625165  1
  H  H379  1  0.60915023  0.18235464  0.39503615  1
  H  H380  1  0.53915379  0.14177421  0.13257618  1
  H  H381  1  0.68640310  0.02509261  0.10733860  1
  Cu  Cu382  1  0.74175599  0.19113431  0.41569660  1
  C  C383  1  0.50985964  0.12361850  0.09371904  1
  C  C384  1  0.51241879  0.07580959  0.05358863  1
  O  O385  1  0.68605669  0.16028327  0.41290310  1
  H  H386  1  0.57531438  0.02879137  0.30319842  1
  H  H387  1  0.52446272  0.02184173  0.21634886  1
  H  H388  1  0.52843992  0.06875937  0.45399067  1
  H  H389  1  0.52422978  0.17432574  0.41760584  1
  C  C390  1  0.59395591  0.16029750  0.45929824  1
  C  C391  1  0.54634044  0.15528142  0.48157916  1
  O  O392  1  0.74299568  0.09791854  0.18438696  1
  C  C393  1  0.67355486  0.13373339  0.48997187  1
  O  O394  1  0.64073267  0.01413593  0.49577753  1
  C  C395  1  0.51890245  0.03512756  0.02654163  1
  H  H396  1  0.69704400  0.37294951  0.43464116  1
  O  O397  1  0.68113070  0.45094788  0.44501626  1
  H  H398  1  0.62200776  0.47573980  0.30945096  1
  C  C399  1  0.71450981  0.46804055  0.38772577  1
  O  O400  1  0.64152059  0.29434381  0.44723762  1
  C  C401  1  0.66721370  0.27187405  0.41326782  1
  C  C402  1  0.68386706  0.39932711  0.49764132  1
  C  C403  1  0.67917781  0.04894197  0.78142209  1
  O  O404  1  0.69267257  0.02736037  0.68882734  1
  C  C405  1  0.71130909  0.08415509  0.83429113  1
  O  O406  1  0.64282931  0.04396997  0.82231809  1
  C  C407  1  0.60908882  0.10309073  0.60887035  1
  H  H408  1  0.54799466  0.07219167  0.69081331  1
  H  H409  1  0.63083857  0.07850413  0.65275678  1
  C  C410  1  0.56218111  0.10078006  0.63563728  1
  Cu  Cu411  1  0.69616079  0.04267748  0.54330524  1
  C  C412  1  0.52790991  0.12526228  0.56380956  1
  C  C413  1  0.70161288  0.20732389  0.80582398  1
  H  H414  1  0.68881553  0.18867434  0.88247163  1
  C  C415  1  0.69336107  0.10594502  0.93108742  1
  C  C416  1  0.66269316  0.21310323  0.71873959  1
  O  O417  1  0.70019755  0.10884691  0.54702815  1
  H  H418  1  0.73334851  0.18679291  0.77683092  1
  H  H419  1  0.63591954  0.18454380  0.72926601  1
  C  C420  1  0.72343211  0.13806737  0.98003214  1
  H  H421  1  0.66026029  0.09614763  0.96835357  1
  H  H422  1  0.56719209  0.02000963  0.88359019  1
  C  C423  1  0.62451562  0.13370267  0.51997645  1
  H  H424  1  0.56908397  0.03239166  0.56120940  1
  H  H425  1  0.64424742  0.24773319  0.72654987  1
  H  H426  1  0.67550118  0.20779592  0.62784618  1
  O  O427  1  0.73372163  0.24932736  0.84767006  1
  H  H428  1  0.61128534  0.37800601  0.50452471  1
  C  C429  1  0.64219711  0.38171802  0.56248940  1
  H  H430  1  0.71498403  0.40812103  0.54999319  1
  H  H431  1  0.63136704  0.40590977  0.63165899  1
  O  O432  1  0.74624065  0.48186211  0.73164449  1
  H  H433  1  0.53332602  0.46293666  0.93594002  1
  H  H434  1  0.71393562  0.40155574  0.76386219  1
  C  C435  1  0.74298840  0.39216928  0.82007393  1
  H  H436  1  0.71972831  0.32086410  0.82345854  1
  C  C437  1  0.74398273  0.34599960  0.85708982  1
  H  H438  1  0.65176825  0.34644591  0.60556022  1
  C  C439  1  0.58088370  0.58689238  0.32933322  1
  C  C440  1  0.53467897  0.60992745  0.34089722  1
  C  C441  1  0.66269850  0.58858962  0.31207496  1
  C  C442  1  0.62147995  0.61384521  0.31953745  1
  H  H443  1  0.62684993  0.57514561  0.09400819  1
  O  O444  1  0.53500368  0.65594416  0.34049983  1
  H  H445  1  0.69498985  0.60813166  0.31835260  1
  H  H446  1  0.62028455  0.65175450  0.31072472  1
  C  C447  1  0.58146306  0.53730305  0.32535200  1
  C  C448  1  0.66614498  0.53876620  0.31390942  1
  H  H449  1  0.54732851  0.59187405  0.15967644  1
  H  H450  1  0.54936064  0.51823934  0.33719223  1
  O  O451  1  0.52415249  0.73970320  0.22990006  1
  C  C452  1  0.62349460  0.51360123  0.31073760  1
  C  C453  1  0.71044660  0.51134436  0.32367530  1
  H  H454  1  0.60883237  0.74744372  0.16945140  1
  C  C455  1  0.55619971  0.59880151  0.07356900  1
  C  C456  1  0.60034696  0.58556606  0.03641550  1
  C  C457  1  0.74530525  0.52924732  0.25981902  1
  H  H458  1  0.73807510  0.56176807  0.21333303  1
  H  H459  1  0.51511364  0.53829358  0.02854871  1
  H  H460  1  0.53322646  0.99449782  0.35404274  1
  C  C461  1  0.70111980  0.87739399  0.27237052  1
  H  H462  1  0.54740994  0.85841469  0.36880695  1
  H  H463  1  0.51584233  0.86656361  0.18971070  1
  H  H464  1  0.73573218  0.82461239  0.37281910  1
  C  C465  1  0.73743239  0.85937688  0.33379070  1
  C  C466  1  0.65424980  0.80238001  0.22745518  1
  C  C467  1  0.61288503  0.77944015  0.21970673  1
  C  C468  1  0.61787744  0.87171051  0.30781171  1
  O  O469  1  0.65904553  0.94105517  0.48582533  1
  H  H470  1  0.68453900  0.79164357  0.18044433  1
  C  C471  1  0.55845761  0.86611173  0.04494367  1
  C  C472  1  0.69985211  0.99564938  0.15695760  1
  O  O473  1  0.67716170  0.95597575  0.17019392  1
  C  C474  1  0.65631954  0.84988967  0.26909843  1
  H  H475  1  0.58571808  0.88292475  0.10185838  1
  C  C476  1  0.53024937  0.77859077  0.27617279  1
  C  C477  1  0.57510629  0.80219268  0.27502588  1
  H  H478  1  0.61774934  0.91045533  0.32783145  1
  C  C479  1  0.57798690  0.84623856  0.32767303  1
  C  C480  1  0.51710905  0.85963354  0.09527660  1
  C  C481  1  0.70328523  0.92403730  0.22794325  1
  C  C482  1  0.74347588  0.95073520  0.25605025  1
  O  O483  1  0.74533449  0.80442032  0.04693629  1
  C  C484  1  0.74280850  0.99894544  0.20368146  1
  Cu  Cu485  1  0.69596872  0.84381477  0.02808223  1
  Cu  Cu486  1  0.72847422  0.54622418  0.73104167  1
  C  C487  1  0.58366339  0.60841458  0.85073800  1
  O  O488  1  0.68024188  0.57624668  0.78838299  1
  H  H489  1  0.59281534  0.61753310  0.76298973  1
  C  C490  1  0.53862334  0.61992323  0.87547115  1
  C  C491  1  0.66432543  0.57692783  0.89120440  1
  O  O492  1  0.54282130  0.70403133  0.69554948  1
  C  C493  1  0.61615146  0.58847170  0.92547779  1
  H  H494  1  0.74279324  0.67160307  0.59107326  1
  O  O495  1  0.68962182  0.56830995  0.97063520  1
  H  H496  1  0.51735287  0.63348291  0.80876062  1
  C  C497  1  0.52344542  0.73799004  0.66646845  1
  C  C498  1  0.52395501  0.61389855  0.98840327  1
  H  H499  1  0.51953553  0.98781690  0.81384032  1
  C  C500  1  0.54664146  0.98756561  0.88181205  1
  C  C501  1  0.72774082  0.89392751  0.75951304  1
  H  H502  1  0.59603737  0.88385442  0.55129119  1
  O  O503  1  0.52506321  0.99079339  0.99903798  1
  H  H504  1  0.60770538  0.93945109  0.89751098  1
  O  O505  1  0.70266111  0.92093464  0.70334934  1
  C  C506  1  0.57563122  0.94351729  0.84992432  1
  C  C507  1  0.51247245  0.98711285  0.62241577  1
  C  C508  1  0.52494858  0.90179820  0.59725474  1
  Cu  Cu509  1  0.69155732  0.80618386  0.83366216  1
  Cu  Cu510  1  0.71635944  0.93616497  0.55381558  1
  H  H511  1  0.54205426  0.81583422  0.78742964  1
  O  O512  1  0.63462671  0.83908200  0.81640513  1
  H  H513  1  0.73784841  0.98531090  0.83308530  1
  C  C514  1  0.57072123  0.91139567  0.56984310  1
  O  O515  1  0.72645265  0.85029631  0.74291620  1
  H  H516  1  0.58487782  0.94669952  0.75374951  1
  C  C517  1  0.61744773  0.85468660  0.90674037  1
  O  O518  1  0.53484497  0.76777407  0.58340402  1
  C  C519  1  0.58458055  0.95898937  0.56056374  1
  C  C520  1  0.57019941  0.84987163  0.93474403  1
  O  O521  1  0.64193445  0.87523955  0.98500847  1
  H  H522  1  0.51305832  0.86586535  0.61877442  1
  C  C523  1  0.53431241  0.82914327  0.86991947  1
  H  H524  1  0.55601028  0.91075634  0.86686658  1
  O  O525  1  0.74896344  0.77674638  0.87542283  1
  C  C526  1  0.55558580  0.99804580  0.58346499  1
  C  C527  1  0.62998036  0.97256960  0.51789071  1
  C  C528  1  0.80736555  0.10141998  0.29782636  1
  H  H529  1  0.82964313  0.02712867  0.33171942  1
  C  C530  1  0.95239885  0.21426790  0.25925742  1
  C  C531  1  0.98141805  0.13066482  0.31065422  1
  H  H532  1  0.94654314  0.11449762  0.30864689  1
  H  H533  1  0.91653493  0.17321658  0.13426814  1
  C  C534  1  0.80951693  0.05176286  0.28143700  1
  C  C535  1  0.91570876  0.20424933  0.18564143  1
  H  H536  1  0.93049557  0.03087818  0.32668483  1
  C  C537  1  0.83666173  0.12972400  0.35466619  1
  C  C538  1  0.88542932  0.02774081  0.17690751  1
  O  O539  1  0.87285182  0.11972003  0.40542040  1
  H  H540  1  0.83145422  0.16960506  0.35414681  1
  C  C541  1  0.77309651  0.04114158  0.20424021  1
  H  H542  1  0.77681028  0.05420957  0.11608617  1
  C  C543  1  0.98907741  0.17642233  0.26328490  1
  H  H544  1  0.83502299  0.15906197  0.05561717  1
  C  C545  1  0.82410751  0.19533052  0.03431994  1
  O  O546  1  0.75699830  0.16678583  0.26817973  1
  O  O547  1  0.79327879  0.22759957  0.45083295  1
  C  C548  1  0.84372354  0.23552110  0.08114419  1
  C  C549  1  0.88263704  0.24056947  0.17119331  1
  C  C550  1  0.76716110  0.12487748  0.24355576  1
  C  C551  1  0.98585481  0.11602951  0.00833611  1
  C  C552  1  0.91125665  0.01089902  0.26142146  1
  H  H553  1  0.97499472  0.00447512  0.37543152  1
  C  C554  1  0.86185215  0.01518474  0.08496852  1
  C  C555  1  0.98206473  0.06595349  0.00465630  1
  C  C556  1  0.89360155  0.16088571  0.48248166  1
  H  H557  1  0.98453119  0.00081637  0.19862265  1
  H  H558  1  0.84928854  0.03838055  0.01361078  1
  H  H559  1  0.93931486  0.43448475  0.12719189  1
  C  C560  1  0.82541016  0.27900810  0.04698047  1
  H  H561  1  0.91824705  0.46165848  0.00143719  1
  C  C562  1  0.96232358  0.25485243  0.32822784  1
  H  H563  1  0.95592911  0.48813293  0.31536257  1
  H  H564  1  0.76013269  0.36880596  0.25869291  1
  C  C565  1  0.79529386  0.46371504  0.31137620  1
  C  C566  1  0.92203312  0.28151974  0.31796415  1
  H  H567  1  0.88427822  0.48434604  0.22277358  1
  C  C568  1  0.75834098  0.44559703  0.37299204  1
  C  C569  1  0.91284323  0.33011262  0.37030882  1
  H  H570  1  0.85441980  0.30397716  0.26486791  1
  C  C571  1  0.94486257  0.43710873  0.03324462  1
  C  C572  1  0.77913411  0.31576905  0.37546211  1
  H  H573  1  0.98359838  0.34006038  0.39614648  1
  C  C574  1  0.91837753  0.37078793  0.29050071  1
  C  C575  1  0.99950279  0.31671487  0.45843517  1
  H  H576  1  0.77139680  0.28623394  0.30798747  1
  H  H577  1  0.93658024  0.36166590  0.20517759  1
  C  C578  1  0.88202972  0.27758180  0.25324004  1
  O  O579  1  0.99749359  0.26665877  0.39140634  1
  H  H580  1  0.82824994  0.44616889  0.31023598  1
  C  C581  1  0.77049740  0.36231522  0.34314381  1
  H  H582  1  0.83556150  0.36292054  0.05087020  1
  C  C583  1  0.90123485  0.33514305  0.48152217  1
  O  O584  1  0.91452865  0.41216662  0.29054961  1
  C  C585  1  0.77215321  0.39893853  0.42498475  1
  H  H586  1  0.84067703  0.31182777  0.08178150  1
  C  C587  1  0.78857580  0.30900121  0.48824408  1
  H  H588  1  0.97812902  0.45529595  0.02168912  1
  C  C589  1  0.88629856  0.05704188  0.80084725  1
  C  C590  1  0.87126223  0.08527180  0.70856777  1
  H  H591  1  0.88472413  0.12018481  0.68963053  1
  C  C592  1  0.83688358  0.06826530  0.63602067  1
  C  C593  1  0.82200190  0.02152061  0.64637861  1
  H  H594  1  0.82294976  0.09215773  0.57345560  1
  H  H595  1  0.90377459  0.14458843  0.82505891  1
  C  C596  1  0.92184384  0.07406451  0.88231743  1
  C  C597  1  0.92509794  0.12357066  0.88165022  1
  C  C598  1  0.94938852  0.04026696  0.94071764  1
  H  H599  1  0.81193935  0.13962543  0.78634480  1
  H  H600  1  0.93365765  0.03262745  0.57373854  1
  C  C601  1  0.77993162  0.13010968  0.82752969  1
  C  C602  1  0.95806439  0.14624990  0.94518780  1
  H  H603  1  0.91142746  0.21495923  0.82279816  1
  C  C604  1  0.93478706  0.23236092  0.88156123  1
  C  C605  1  0.96351677  0.20064409  0.94470508  1
  C  C606  1  0.86966890  0.00887944  0.80701170  1
  H  H607  1  0.76113288  0.07628438  0.69848660  1
  C  C608  1  0.78795152  0.20032005  0.95690437  1
  C  C609  1  0.89416042  0.20384834  0.50221962  1
  H  H610  1  0.91907715  0.13434113  0.51664417  1
  O  O611  1  0.76195738  0.02927422  0.52157368  1
  H  H612  1  0.79431616  0.01327310  0.97293229  1
  C  C613  1  0.75302767  0.09333735  0.78175626  1
  C  C614  1  0.76553444  0.15265554  0.92985266  1
  O  O615  1  0.79482018  0.24887482  0.62822662  1
  C  C616  1  0.76731384  0.24297196  0.91678815  1
  O  O617  1  0.81219361  0.49577265  0.81977063  1
  C  C618  1  0.78984207  0.28258315  0.96940654  1
  C  C619  1  0.94563227  0.39010004  0.96740315  1
  C  C620  1  0.77735570  0.42346518  0.84927745  1
  H  H621  1  0.97415316  0.31543212  0.52828807  1
  C  C622  1  0.77923317  0.33106365  0.93508765  1
  C  C623  1  0.98148487  0.29911331  0.96567167  1
  H  H624  1  0.94339480  0.39729901  0.87730806  1
  C  C625  1  0.80983337  0.36689845  0.97892242  1
  C  C626  1  0.89477450  0.25169171  0.52852032  1
  H  H627  1  0.89909344  0.37105277  0.50543284  1
  C  C628  1  0.89717450  0.29685441  0.56503180  1
  O  O629  1  0.85365230  0.45887908  0.62532324  1
  H  H630  1  0.79412553  0.33690049  0.65740495  1
  H  H631  1  0.83590806  0.39386008  0.75029168  1
  C  C632  1  0.95796917  0.33721459  0.73716001  1
  C  C633  1  0.94626098  0.37734953  0.67618515  1
  C  C634  1  0.77833874  0.46897457  0.79859061  1
  H  H635  1  0.83425004  0.43897261  0.96636708  1
  C  C636  1  0.89285199  0.43945149  0.62735008  1
  H  H637  1  0.85565881  0.31436023  0.86321633  1
  C  C638  1  0.78285256  0.39043222  0.53691242  1
  H  H639  1  0.97005734  0.39513389  0.61626027  1
  C  C640  1  0.86843134  0.37504795  0.75703723  1
  O  O641  1  0.92441814  0.45583089  0.56353501  1
  C  C642  1  0.90166544  0.39705859  0.68898114  1
  C  C643  1  0.79462493  0.25925513  0.53024300  1
  H  H644  1  0.88707734  0.30220621  0.64940270  1
  C  C645  1  0.80924958  0.41165564  0.93653844  1
  H  H646  1  0.78464772  0.41876744  0.60287219  1
  C  C647  1  0.79054853  0.34532887  0.57018410  1
  C  C648  1  0.92608895  0.31766763  0.81182007  1
  H  H649  1  0.99276391  0.32013728  0.72931480  1
  C  C650  1  0.88024622  0.33314691  0.81468983  1
  C  C651  1  0.94779068  0.28068230  0.89249661  1
  O  O652  1  0.98813516  0.35541261  0.98549638  1
  H  H653  1  0.91818323  0.36648509  0.99251877  1
  C  C654  1  0.90363575  0.59593759  0.10568782  1
  C  C655  1  0.85555524  0.60787818  0.11403014  1
  C  C656  1  0.90872882  0.54855627  0.15195332  1
  C  C657  1  0.82150009  0.57981360  0.15962258  1
  C  C658  1  0.81201319  0.68320232  0.16383319  1
  H  H659  1  0.81876668  0.67285440  0.25076127  1
  C  C660  1  0.82813611  0.53473780  0.20747484  1
  H  H661  1  0.78786801  0.59675264  0.16115839  1
  C  C662  1  0.83203458  0.65340746  0.08145336  1
  O  O663  1  0.93660652  0.62300341  0.06942937  1
  C  C664  1  0.95589247  0.52590756  0.15080475  1
  C  C665  1  0.98096461  0.53810538  0.05481072  1
  C  C666  1  0.87415412  0.51889701  0.19220370  1
  H  H667  1  0.89792364  0.68313212  0.11324077  1
  C  C668  1  0.92753810  0.67579764  0.05574729  1
  C  C669  1  0.79325022  0.72718326  0.13427430  1
  C  C670  1  0.96656329  0.71132992  0.07193963  1
  C  C671  1  0.78938803  0.50783472  0.25681206  1
  C  C672  1  0.78849509  0.73454469  0.01900467  1
  H  H673  1  0.97214724  0.71337283  0.16516676  1
  H  H674  1  0.95560843  0.74890381  0.05079726  1
  C  C675  1  0.97738779  0.50053926  0.24337545  1
  O  O676  1  0.89683514  0.59322410  0.49622942  1
  H  H677  1  0.99877376  0.70166339  0.03092495  1
  H  H678  1  0.96471249  0.89102406  0.06621352  1
  C  C679  1  0.83765342  0.80794257  0.19701426  1
  H  H680  1  0.77948340  0.75116180  0.20129886  1
  C  C681  1  0.84857703  0.86234871  0.19149205  1
  H  H682  1  0.81079256  0.95605131  0.32012366  1
  C  C683  1  0.88684987  0.93659088  0.15726220  1
  H  H684  1  0.77498523  0.79183766  0.44903749  1
  H  H685  1  0.92289757  0.86129551  0.29852575  1
  H  H686  1  0.97820812  0.83064449  0.42968270  1
  H  H687  1  0.96640284  0.97527961  0.08676033  1
  H  H688  1  0.81620962  0.87773006  0.15927681  1
  H  H689  1  0.82261750  0.79618173  0.11735760  1
  C  C690  1  0.97814972  0.86761803  0.41059969  1
  C  C691  1  0.97925164  0.96596237  0.37306833  1
  C  C692  1  0.80825194  0.86422209  0.43849050  1
  O  O693  1  0.88737728  0.88327988  0.15047565  1
  H  H694  1  0.84115740  0.93331436  0.45407824  1
  C  C695  1  0.80526579  0.81617038  0.47406799  1
  C  C696  1  0.86017663  0.96300566  0.08239622  1
  H  H697  1  0.81313431  0.80328996  0.26352432  1
  C  C698  1  0.91128477  0.95837238  0.24564261  1
  H  H699  1  0.85095285  0.87518093  0.28351688  1
  C  C700  1  0.78038533  0.93315955  0.31128694  1
  C  C701  1  0.77622670  0.88691012  0.35607611  1
  C  C702  1  0.94407701  0.93797160  0.32555761  1
  C  C703  1  0.94604136  0.88627210  0.34081035  1
  H  H704  1  0.86971719  0.78745420  0.21923676  1
  C  C705  1  0.84198246  0.89520651  0.47898417  1
  C  C706  1  0.97936063  0.96419866  0.00331757  1
  H  H707  1  0.85021300  0.87270618  0.00000311  1
  O  O708  1  0.82978470  0.58657653  0.73275144  1
  C  C709  1  0.91871748  0.58482332  0.57866879  1
  C  C710  1  0.94414951  0.62316273  0.64156099  1
  Cu  Cu711  1  0.84406474  0.52238347  0.69015222  1
  C  C712  1  0.85613744  0.67807017  0.66854004  1
  C  C713  1  0.81224222  0.65940415  0.65482935  1
  H  H714  1  0.88515423  0.65436399  0.70780028  1
  C  C715  1  0.80147567  0.60975008  0.68043591  1
  C  C716  1  0.95269046  0.66630430  0.59071192  1
  O  O717  1  0.92241868  0.54481021  0.62800921  1
  C  C718  1  0.86336358  0.72505232  0.64993515  1
  C  C719  1  0.77640857  0.68702760  0.61042804  1
  C  C720  1  0.97642905  0.70373778  0.64211318  1
  H  H721  1  0.80223043  0.71524040  0.84389951  1
  C  C722  1  0.96248084  0.61582598  0.74945879  1
  H  H723  1  0.95831066  0.57919955  0.78554387  1
  C  C724  1  0.80702170  0.70553662  0.93386497  1
  H  H725  1  0.83979227  0.63873289  0.90003372  1
  C  C726  1  0.78471624  0.73275090  0.57187836  1
  H  H727  1  0.96666142  0.74197865  0.85951118  1
  H  H728  1  0.97899460  0.74070198  0.61358139  1
  H  H729  1  0.93735605  0.67001105  0.50358981  1
  H  H730  1  0.89735671  0.73958065  0.67250787  1
  C  C731  1  0.99037681  0.64743154  0.80401055  1
  O  O732  1  0.76175681  0.59162612  0.65898538  1
  C  C733  1  0.82860988  0.66457049  0.96397094  1
  H  H734  1  0.91423849  0.67882041  0.96829789  1
  Cu  Cu735  1  0.96780335  0.50299344  0.60079270  1
  C  C736  1  0.99676297  0.69200381  0.74892086  1
  H  H737  1  0.96414209  0.56021090  0.99164559  1
  H  H738  1  0.75593821  0.75710576  0.54385352  1
  C  C739  1  0.93675180  0.99537376  0.59594469  1
  O  O740  1  0.94484819  0.99470860  0.92639091  1
  C  C741  1  0.79507876  0.88069316  0.88203984  1
  C  C742  1  0.82855263  0.89814700  0.95528765  1
  C  C743  1  0.79697634  0.97660944  0.94055030  1
  C  C744  1  0.82902953  0.75262535  0.59443004  1
  H  H745  1  0.95132900  0.86561624  0.70082560  1
  C  C746  1  0.88135147  0.82710465  0.57797185  1
  C  C747  1  0.75854863  0.77274675  0.97874516  1
  C  C748  1  0.97451850  0.98098270  0.66151976  1
  H  H749  1  0.96219487  0.89700099  0.91585938  1
  H  H750  1  0.87420018  0.97376588  0.51892286  1
  H  H751  1  0.88639971  0.80203017  0.85133600  1
  H  H752  1  0.87908421  0.98638456  0.88080892  1
  C  C753  1  0.76465904  0.96043452  0.86679068  1
  C  C754  1  0.98027330  0.93395258  0.69499631  1
  C  C755  1  0.90491381  0.96107780  0.56663600  1
  C  C756  1  0.84085360  0.99014290  0.72687176  1
  C  C757  1  0.87473594  0.87748323  0.55148928  1
  C  C758  1  0.95863622  0.77860550  0.83973229  1
  C  C759  1  0.76285082  0.91198887  0.83835712  1
  C  C760  1  0.82934224  0.94592292  0.99020210  1
  H  H761  1  0.92492760  0.83577056  0.93462357  1
  C  C762  1  0.83901954  0.79878568  0.54585975  1
  H  H763  1  0.79689056  0.84549704  0.84828182  1
  C  C764  1  0.91767298  0.80011061  0.90426617  1
  C  C765  1  0.94662797  0.90139379  0.66588698  1
  H  H766  1  0.95655279  0.78068322  0.74843649  1
  O  O767  1  0.77567454  0.95699355  0.58454856  1
  O  O768  1  0.91355766  0.81381388  0.62803007  1
  C  C769  1  0.90761349  0.91219625  0.59680062  1
  H  H770  1  0.83255357  0.95200916  0.73261342  1
  C  C771  1  0.78586750  0.99937469  0.57925364  1
  C  C772  1  0.98083571  0.90926541  0.99436846  1
  H  H773  1  0.90889028  0.77606109  0.97918761  1
