# generated using pymatgen
data_CuH15C22O5
_symmetry_space_group_name_H-M   'P 1'
_cell_length_a   31.36312181
_cell_length_b   26.56878614
_cell_length_c   10.17134412
_cell_angle_alpha   90.00000000
_cell_angle_beta   90.00000000
_cell_angle_gamma   90.00000000
_symmetry_Int_Tables_number   1
_chemical_formula_structural   CuH15C22O5
_chemical_formula_sum   'Cu18 H270 C396 O90'
_cell_volume   8475.57839818
_cell_formula_units_Z   18
loop_
 _symmetry_equiv_pos_site_id
 _symmetry_equiv_pos_as_xyz
  1  'x, y, z'
loop_
 _atom_site_type_symbol
 _atom_site_label
 _atom_site_symmetry_multiplicity
 _atom_site_fract_x
 _atom_site_fract_y
 _atom_site_fract_z
 _atom_site_occupancy
  C  C0  1  0.15779132  0.06363707  0.18743140  1
  C  C1  1  0.18588628  0.10348359  0.22019601  1
  C  C2  1  0.11446630  0.07498831  0.21816844  1
  C  C3  1  0.12741146  0.15709790  0.30713509  1
  C  C4  1  0.17048656  0.14920083  0.28139466  1
  C  C5  1  0.23344817  0.09709649  0.19969266  1
  C  C6  1  0.09637572  0.11976644  0.28051192  1
  C  C7  1  0.09193374  0.02802194  0.17151619  1
  H  H8  1  0.16685832  0.03001070  0.12756029  1
  H  H9  1  0.19207322  0.17898962  0.30356863  1
  H  H10  1  0.22090615  0.02540214  0.28220840  1
  O  O11  1  0.05630968  0.12472203  0.31266344  1
  C  C12  1  0.06277020  0.01965863  0.06355470  1
  C  C13  1  0.02366616  0.08389162  0.29266422  1
  H  H14  1  0.02360270  0.06995655  0.18807853  1
  C  C15  1  0.11566888  0.20221756  0.39015803  1
  H  H16  1  0.04148108  0.05603461  0.35608341  1
  H  H17  1  0.14000062  0.03235830  0.38529007  1
  H  H18  1  0.05656273  0.21984277  0.28259778  1
  C  C19  1  0.07633761  0.22755830  0.36643698  1
  C  C20  1  0.04796062  0.23967619  0.03338338  1
  C  C21  1  0.24610077  0.04834070  0.24273529  1
  H  H22  1  0.23356980  0.47563558  0.26042517  1
  H  H23  1  0.04341462  0.48632240  0.39900287  1
  C  C24  1  0.22324236  0.49810967  0.17817190  1
  C  C25  1  0.09127560  0.25644813  0.04443681  1
  C  C26  1  0.24771240  0.49168071  0.06445127  1
  H  H27  1  0.04443703  0.39061493  0.38787116  1
  C  C28  1  0.22636199  0.33786055  0.11286351  1
  H  H29  1  0.14566090  0.31966546  0.32555047  1
  C  C30  1  0.06665118  0.33489963  0.16628546  1
  H  H31  1  0.03549587  0.28452462  0.43136765  1
  C  C32  1  0.16313299  0.32166076  0.23185635  1
  C  C33  1  0.20566098  0.33346434  0.23343817  1
  C  C34  1  0.14153617  0.31823574  0.10844419  1
  H  H35  1  0.02367879  0.41495852  0.23430919  1
  C  C36  1  0.05153539  0.41306101  0.30260757  1
  H  H37  1  0.11847495  0.40599560  0.05338429  1
  H  H38  1  0.06190594  0.49340524  0.23787952  1
  O  O39  1  0.07949908  0.37666789  0.21658796  1
  H  H40  1  0.12553364  0.49564979  0.09406956  1
  H  H41  1  0.00485226  0.33055644  0.39451239  1
  C  C42  1  0.09505565  0.30125863  0.10703681  1
  C  C43  1  0.06431042  0.46850135  0.32524950  1
  H  H44  1  0.09831332  0.47085843  0.36643403  1
  C  C45  1  0.01537822  0.26772376  0.09814558  1
  C  C46  1  0.02341187  0.31383582  0.15425115  1
  C  C47  1  0.06379691  0.26315444  0.45525197  1
  H  H48  1  0.22215415  0.33663022  0.32991659  1
  C  C49  1  0.18641922  0.05362411  0.68247222  1
  C  C50  1  0.03344722  0.11352944  0.75060223  1
  C  C51  1  0.12505143  0.10884771  0.65453142  1
  C  C52  1  0.11109978  0.09863099  0.78686591  1
  C  C53  1  0.16171332  0.08672926  0.60499374  1
  C  C54  1  0.07070772  0.12674193  0.82422084  1
  H  H55  1  0.10581837  0.13802600  0.59901943  1
  C  C56  1  0.22594604  0.03338564  0.63454321  1
  C  C57  1  0.17416090  0.04260539  0.81237923  1
  O  O58  1  0.03209520  0.07838998  0.65490854  1
  H  H59  1  0.06253373  0.06385193  0.66977424  1
  C  C60  1  0.13752915  0.06528227  0.86057389  1
  C  C61  1  0.07205661  0.16242868  0.92172508  1
  H  H62  1  0.19335283  0.02061244  0.88060004  1
  H  H63  1  0.12949459  0.06083173  0.96271347  1
  C  C64  1  0.03627748  0.19337295  0.95327186  1
  H  H65  1  0.10097195  0.16816676  0.97168305  1
  O  O66  1  0.23461166  0.04676334  0.51412059  1
  H  H67  1  0.17312087  0.09829471  0.51078267  1
  H  H68  1  0.07116059  0.00999616  0.80637800  1
  H  H69  1  0.16946008  0.19862850  0.52604270  1
  C  C70  1  0.13942699  0.21723360  0.50043338  1
  H  H71  1  0.12528549  0.00916094  0.64974048  1
  H  H72  1  0.04861457  0.05145955  0.99665187  1
  H  H73  1  0.11824833  0.23647200  0.99824879  1
  H  H74  1  0.14367468  0.43411279  0.64630235  1
  C  C75  1  0.07085596  0.31710459  0.66085002  1
  C  C76  1  0.00173583  0.46871731  0.56765246  1
  C  C77  1  0.08730424  0.27718357  0.57102035  1
  O  O78  1  0.00765415  0.44333783  0.99962663  1
  C  C79  1  0.07825785  0.44513693  0.60579978  1
  H  H80  1  0.19228530  0.44757312  0.62534262  1
  H  H81  1  0.14899066  0.31684388  0.89480623  1
  C  C82  1  0.11943333  0.46299141  0.62817274  1
  C  C83  1  0.20468446  0.48808759  0.63126034  1
  H  H84  1  0.14893941  0.26249680  0.67325673  1
  C  C85  1  0.04655035  0.48227117  0.59807391  1
  H  H86  1  0.22708017  0.33020892  0.90138792  1
  H  H87  1  0.11184277  0.41283966  0.88397954  1
  O  O88  1  0.09026657  0.33200293  0.75073548  1
  C  C89  1  0.12694036  0.25391269  0.59394742  1
  C  C90  1  0.10257294  0.42953118  0.97840132  1
  H  H91  1  0.07241729  0.40469482  0.59759206  1
  H  H92  1  0.14414541  0.49052697  0.92486600  1
  C  C93  1  0.11733072  0.48510593  0.99164065  1
  O  O94  1  0.03184044  0.33366919  0.63421070  1
  H  H95  1  0.06511753  0.42564079  0.99791579  1
  C  C96  1  0.20694070  0.32971137  0.98694890  1
  C  C97  1  0.16366847  0.32165441  0.98802063  1
  C  C98  1  0.09018345  0.67214238  0.35967869  1
  C  C99  1  0.07142936  0.64454289  0.25148158  1
  C  C100  1  0.13771290  0.66236473  0.35702452  1
  C  C101  1  0.17004687  0.70100190  0.33112716  1
  C  C102  1  0.15046238  0.61241388  0.39211489  1
  H  H103  1  0.08594291  0.62011446  0.17529275  1
  C  C104  1  0.19320751  0.59918441  0.37812102  1
  C  C105  1  0.21283808  0.68721320  0.32896521  1
  C  C106  1  0.06641752  0.70186294  0.44747044  1
  H  H107  1  0.16626933  0.53223881  0.27100893  1
  C  C108  1  0.18723697  0.52972028  0.18317910  1
  C  C109  1  0.22392795  0.63531673  0.34255165  1
  H  H110  1  0.20431515  0.56171401  0.41116433  1
  H  H111  1  0.12846045  0.58404327  0.43647778  1
  C  C112  1  0.02248318  0.71155301  0.41712143  1
  C  C113  1  0.18841200  0.74198684  0.06281336  1
  H  H114  1  0.21001841  0.70978233  0.08572162  1
  H  H115  1  0.23538490  0.71584995  0.29852978  1
  C  C116  1  0.03059964  0.66222061  0.24602169  1
  H  H117  1  0.18453492  0.63996484  0.11464347  1
  C  C118  1  0.17564353  0.55167191  0.05833314  1
  C  C119  1  0.15371581  0.63758362  0.05667172  1
  H  H120  1  0.16096725  0.74065601  0.30355500  1
  C  C121  1  0.14488536  0.73347462  0.02746247  1
  C  C122  1  0.14020261  0.58861123  0.02645599  1
  C  C123  1  0.13065418  0.67917536  0.01514802  1
  O  O124  1  0.04440251  0.98583386  0.01134192  1
  C  C125  1  0.13170396  0.99376708  0.35841953  1
  H  H126  1  0.02031747  0.86645770  0.38381651  1
  H  H127  1  0.13798420  0.92217412  0.17412148  1
  H  H128  1  0.05263580  0.98189697  0.38804301  1
  O  O129  1  0.04523936  0.88914667  0.19191902  1
  C  C130  1  0.02929392  0.94924687  0.40687537  1
  C  C131  1  0.15400746  0.95613212  0.43090527  1
  C  C132  1  0.09714790  0.85427937  0.03269522  1
  H  H133  1  0.24098770  0.85253117  0.29175032  1
  C  C134  1  0.13764242  0.82264772  0.05011723  1
  O  O135  1  0.14127560  0.80864861  0.40442764  1
  C  C136  1  0.07936601  0.86761716  0.15470777  1
  C  C137  1  0.20337293  0.78890225  0.10295595  1
  C  C138  1  0.17955034  0.83464781  0.09979850  1
  C  C139  1  0.16661875  0.92544943  0.10616365  1
  C  C140  1  0.15313297  0.90496753  0.42700300  1
  H  H141  1  0.19000424  0.95252036  0.14391527  1
  O  O142  1  0.19672415  0.87680197  0.13415042  1
  H  H143  1  0.08674086  0.95151893  0.24447076  1
  C  C144  1  0.10438246  0.98694002  0.25222360  1
  H  H145  1  0.09587526  0.85146906  0.23926045  1
  C  C146  1  0.04327864  0.89815121  0.35224871  1
  H  H147  1  0.23281375  0.97659933  0.37760623  1
  H  H148  1  0.07455265  0.89146570  0.39024949  1
  C  C149  1  0.14681062  0.85236630  0.41618703  1
  H  H150  1  0.17999089  0.97603380  0.48505960  1
  C  C151  1  0.24706657  0.78836883  0.15792889  1
  C  C152  1  0.11830015  0.77652028  0.02159209  1
  H  H153  1  0.21185088  0.67100063  0.81045309  1
  C  C154  1  0.03507947  0.61640672  0.85486844  1
  C  C155  1  0.07634906  0.62012333  0.93483585  1
  C  C156  1  0.18802763  0.58173354  0.66802920  1
  H  H157  1  0.04772690  0.68455516  0.73137310  1
  C  C158  1  0.09565353  0.55089434  0.64932244  1
  C  C159  1  0.00941162  0.57345210  0.87946819  1
  C  C160  1  0.02497899  0.65283971  0.75191084  1
  C  C161  1  0.05470293  0.53360440  0.62793181  1
  O  O162  1  0.16409851  0.61650248  0.67479856  1
  C  C163  1  0.17529995  0.52842617  0.64763643  1
  H  H164  1  0.10127868  0.59153163  0.67198055  1
  H  H165  1  0.06937557  0.69583973  0.91037315  1
  C  C166  1  0.09088032  0.66846920  0.95162037  1
  O  O167  1  0.08670771  0.53034658  0.95193449  1
  H  H168  1  0.01956521  0.54381705  0.95705912  1
  C  C169  1  0.19893167  0.54274039  0.94067071  1
  H  H170  1  0.18674039  0.55752288  0.84898278  1
  H  H171  1  0.02893015  0.55886055  0.63924423  1
  C  C172  1  0.09898074  0.57637092  0.97619304  1
  C  C173  1  0.13321091  0.71820470  0.59829260  1
  H  H174  1  0.13556984  0.67776053  0.59414182  1
  C  C175  1  0.23632455  0.58696203  0.67477673  1
  C  C176  1  0.13072701  0.51540391  0.63874328  1
  O  O177  1  0.08343492  0.72464609  0.55089668  1
  C  C178  1  0.14877361  0.74092554  0.72865348  1
  H  H179  1  0.14640330  0.71106581  0.80797430  1
  C  C180  1  0.24495121  0.67468750  0.77650940  1
  C  C181  1  0.24861329  0.50003022  0.62786731  1
  C  C182  1  0.23513974  0.51338899  0.94159943  1
  H  H183  1  0.14962824  0.73271082  0.51500349  1
  C  C184  1  0.07384164  0.97613394  0.74798004  1
  H  H185  1  0.18262047  0.75332883  0.72141352  1
  H  H186  1  0.02609548  0.94907724  0.51557979  1
  O  O187  1  0.23009215  0.84426032  0.83813472  1
  H  H188  1  0.08405932  0.77623344  0.99357515  1
  H  H189  1  0.12879946  0.77524009  0.74840399  1
  H  H190  1  0.17742879  0.94581571  0.89969947  1
  C  C191  1  0.15091919  0.93594968  0.96651246  1
  H  H192  1  0.01341522  0.86741895  0.62124102  1
  C  C193  1  0.11321913  0.84580963  0.70319293  1
  C  C194  1  0.01545923  0.79004492  0.54666607  1
  H  H195  1  0.13585602  0.90029666  0.93110740  1
  H  H196  1  0.10713642  0.84380803  0.59434428  1
  H  H197  1  0.04995916  0.87294366  0.71680739  1
  C  C198  1  0.15620596  0.84793074  0.74723604  1
  H  H199  1  0.04680748  0.77946421  0.59489076  1
  C  C200  1  0.07432273  0.86831182  0.91598911  1
  C  C201  1  0.19316805  0.84918317  0.78715156  1
  H  H202  1  0.11657387  0.94213271  0.61305957  1
  H  H203  1  0.05104489  0.94460965  0.75972219  1
  H  H204  1  0.04642416  0.88164505  0.97194186  1
  C  C205  1  0.07805606  0.86327393  0.77932286  1
  C  C206  1  0.10563415  0.97468385  0.66591594  1
  H  H207  1  0.12713849  0.96727065  0.95818413  1
  O  O208  1  0.36179509  0.05534287  0.19107506  1
  C  C209  1  0.32170310  0.06895199  0.19210710  1
  C  C210  1  0.30580303  0.11681443  0.15811096  1
  H  H211  1  0.38539187  0.12564421  0.20815181  1
  C  C212  1  0.39589853  0.09459692  0.14085662  1
  C  C213  1  0.32799276  0.16049072  0.08610597  1
  C  C214  1  0.28814685  0.03394381  0.23504670  1
  C  C215  1  0.33623397  0.20320017  0.17066782  1
  H  H216  1  0.33835470  0.20276962  0.27891217  1
  H  H217  1  0.48015330  0.17252938  0.37344723  1
  C  C218  1  0.44467880  0.08994518  0.15547354  1
  H  H219  1  0.46172880  0.12539332  0.12883261  1
  C  C220  1  0.26374389  0.13283382  0.15786258  1
  H  H221  1  0.41976740  0.02274906  0.30967523  1
  H  H222  1  0.45570467  0.05944426  0.08257946  1
  H  H223  1  0.45179483  0.07837644  0.26073986  1
  H  H224  1  0.25383539  0.17271138  0.12209366  1
  C  C225  1  0.35354085  0.24309685  0.10320201  1
  H  H226  1  0.28456833  0.21907870  0.41549087  1
  H  H227  1  0.38415584  0.09801341  0.03447458  1
  C  C228  1  0.46892634  0.13809434  0.42402399  1
  H  H229  1  0.47373880  0.01581232  0.37521304  1
  H  H230  1  0.40033543  0.15031827  0.40323995  1
  C  C231  1  0.42663379  0.12688723  0.44720586  1
  H  H232  1  0.43378036  0.24824620  0.47985651  1
  O  O233  1  0.34057775  0.09497695  0.48543343  1
  Cu  Cu234  1  0.28367204  0.07542595  0.48491923  1
  C  C235  1  0.28620491  0.24283710  0.49985298  1
  C  C236  1  0.29978706  0.29228273  0.49472898  1
  C  C237  1  0.42551268  0.49752957  0.05375208  1
  Cu  Cu238  1  0.33819407  0.39637300  0.21602744  1
  H  H239  1  0.36576622  0.30293861  0.45583852  1
  C  C240  1  0.38516364  0.48842159  0.46985721  1
  H  H241  1  0.36857957  0.27394238  0.15008046  1
  H  H242  1  0.30987254  0.30918385  0.39731026  1
  C  C243  1  0.40061758  0.45151318  0.08144002  1
  O  O244  1  0.29248809  0.35269769  0.21710642  1
  O  O245  1  0.29156936  0.34313010  0.00266685  1
  C  C246  1  0.27224484  0.34679566  0.10721992  1
  H  H247  1  0.44184566  0.29464309  0.35975692  1
  O  O248  1  0.39013199  0.43632638  0.19278737  1
  O  O249  1  0.29924296  0.44908924  0.18692635  1
  C  C250  1  0.28748772  0.46234142  0.07223686  1
  C  C251  1  0.43462586  0.28753963  0.46129242  1
  O  O252  1  0.38827947  0.37382038  0.49239275  1
  O  O253  1  0.36174831  0.03199507  0.60698701  1
  H  H254  1  0.34421425  0.20735469  0.77795210  1
  H  H255  1  0.44282690  0.17946383  0.82744266  1
  C  C256  1  0.44590565  0.14017753  0.78423843  1
  C  C257  1  0.34445337  0.20300406  0.88897854  1
  H  H258  1  0.32095315  0.12391455  0.88469114  1
  C  C259  1  0.27980073  0.22076418  0.62390000  1
  H  H260  1  0.45652170  0.14199532  0.67996978  1
  H  H261  1  0.41514538  0.11853151  0.79591953  1
  C  C262  1  0.33053857  0.15795530  0.94603247  1
  C  C263  1  0.44737000  0.05316266  0.57339468  1
  C  C264  1  0.37040116  0.07055530  0.53626071  1
  C  C265  1  0.26560176  0.16742618  0.64324591  1
  C  C266  1  0.48311595  0.11264454  0.85267688  1
  C  C267  1  0.35536949  0.24495092  0.96529795  1
  Cu  Cu268  1  0.30665979  0.01393893  0.65960141  1
  C  C269  1  0.41499634  0.08528509  0.52243918  1
  C  C270  1  0.48875436  0.06489519  0.54625236  1
  O  O271  1  0.25668795  0.15461952  0.75250129  1
  H  H272  1  0.48415006  0.11567068  0.96190208  1
  O  O273  1  0.26266679  0.13849986  0.53830520  1
  O  O274  1  0.49324362  0.05336965  0.86313776  1
  H  H275  1  0.43240351  0.01901955  0.62823412  1
  H  H276  1  0.26506783  0.23767143  0.83177879  1
  O  O277  1  0.25024973  0.00737501  0.70445546  1
  O  O278  1  0.37776129  0.33198625  0.97265875  1
  Cu  Cu279  1  0.34145154  0.38778904  0.95822267  1
  H  H280  1  0.43138402  0.47006088  0.62727001  1
  H  H281  1  0.25578063  0.38743030  0.67416328  1
  H  H282  1  0.41441752  0.49668084  0.85152382  1
  C  C283  1  0.42221189  0.49782851  0.55230900  1
  H  H284  1  0.28416304  0.32598185  0.82004216  1
  H  H285  1  0.46202482  0.30384237  0.52065489  1
  C  C286  1  0.30126040  0.32483652  0.60767394  1
  C  C287  1  0.28168998  0.40815888  0.62608135  1
  C  C288  1  0.31714325  0.48263377  0.53114382  1
  C  C289  1  0.39438254  0.31598566  0.51052728  1
  H  H290  1  0.38818154  0.30994259  0.61951298  1
  C  C291  1  0.28778882  0.30272704  0.72587991  1
  C  C292  1  0.37318495  0.29081706  0.89880582  1
  O  O293  1  0.37935625  0.28874234  0.78530130  1
  C  C294  1  0.28160401  0.46144113  0.59626526  1
  C  C295  1  0.35464132  0.39795813  0.53484423  1
  C  C296  1  0.31660976  0.37961650  0.59475851  1
  C  C297  1  0.27627544  0.25228874  0.73508492  1
  O  O298  1  0.30698839  0.44768425  0.97160955  1
  O  O299  1  0.39053766  0.42946090  0.97660327  1
  C  C300  1  0.35198970  0.45052232  0.51277250  1
  H  H301  1  0.38903383  0.60605758  0.30214094  1
  O  O302  1  0.29952456  0.64284229  0.29642914  1
  C  C303  1  0.39761516  0.57335653  0.36747702  1
  O  O304  1  0.28469468  0.57253758  0.40696991  1
  Cu  Cu305  1  0.45405521  0.71974475  0.31247263  1
  C  C306  1  0.37635834  0.52594017  0.37439406  1
  H  H307  1  0.33419556  0.70991361  0.13887508  1
  H  H308  1  0.45432745  0.67474778  0.05298166  1
  C  C309  1  0.46682232  0.56423130  0.13556275  1
  C  C310  1  0.44343398  0.52155008  0.16371002  1
  H  H311  1  0.35135146  0.51877369  0.29572677  1
  C  C312  1  0.27101124  0.61773349  0.33669939  1
  H  H313  1  0.26211046  0.71788800  0.05139871  1
  O  O314  1  0.43205592  0.66292333  0.39889162  1
  O  O315  1  0.39486111  0.73770866  0.27936932  1
  C  C316  1  0.27345265  0.74574817  0.12373443  1
  C  C317  1  0.31590896  0.74426003  0.16255999  1
  C  C318  1  0.47463257  0.58505490  0.00816005  1
  H  H319  1  0.48163272  0.58500315  0.21689432  1
  H  H320  1  0.44023207  0.50655820  0.26387376  1
  C  C321  1  0.42758788  0.58068476  0.46818083  1
  H  H322  1  0.25838555  0.56751882  0.45770503  1
  C  C323  1  0.48913545  0.67346641  0.02954141  1
  H  H324  1  0.31710402  0.52047019  0.49240104  1
  C  C325  1  0.44530895  0.63217564  0.48384639  1
  H  H326  1  0.38403511  0.91639958  0.40136661  1
  H  H327  1  0.31745932  0.85197876  0.35959879  1
  H  H328  1  0.45512045  0.95876147  0.15590708  1
  C  C329  1  0.44223484  0.99471425  0.34817194  1
  O  O330  1  0.38654049  0.80662221  0.38964933  1
  C  C331  1  0.34822235  0.90062371  0.07072291  1
  C  C332  1  0.34049183  0.96142704  0.28694971  1
  C  C333  1  0.30354179  0.82249199  0.29808314  1
  C  C334  1  0.46880808  0.80008709  0.04574016  1
  C  C335  1  0.26685768  0.96573411  0.39011473  1
  C  C336  1  0.37890812  0.86730047  0.11573813  1
  C  C337  1  0.42174475  0.87582967  0.07550619  1
  H  H338  1  0.41731111  0.92818389  0.25831330  1
  C  C339  1  0.34971429  0.92741187  0.38590320  1
  C  C340  1  0.48813199  0.86643249  0.21727512  1
  H  H341  1  0.31293295  0.89627359  0.09923726  1
  C  C342  1  0.32978237  0.78257695  0.25328928  1
  H  H343  1  0.37102442  0.83655975  0.17871445  1
  C  C344  1  0.27673440  0.93201352  0.48808818  1
  C  C345  1  0.31926268  0.91638857  0.48577132  1
  C  C346  1  0.26242030  0.82542642  0.24898420  1
  H  H347  1  0.36352419  0.97572565  0.21283711  1
  C  C348  1  0.29767307  0.98429854  0.29750823  1
  C  C349  1  0.37320243  0.77446532  0.31054807  1
  C  C350  1  0.46114161  0.84434756  0.12205696  1
  H  H351  1  0.42731871  0.98030298  0.43667872  1
  C  C352  1  0.44837246  0.94841819  0.25988891  1
  O  O353  1  0.48664562  0.90843597  0.28075959  1
  C  C354  1  0.30453833  0.63815510  0.65770052  1
  C  C355  1  0.31056011  0.71859125  0.76245322  1
  C  C356  1  0.32790505  0.68099316  0.68067173  1
  H  H357  1  0.36046685  0.68184933  0.64545199  1
  C  C358  1  0.44428080  0.54324349  0.55435198  1
  H  H359  1  0.46826249  0.54684059  0.63081874  1
  O  O360  1  0.46955143  0.64283660  0.57625396  1
  Cu  Cu361  1  0.48161071  0.70513592  0.65229378  1
  H  H362  1  0.29900636  0.55602206  0.68727583  1
  C  C363  1  0.45227925  0.56424641  0.90408582  1
  C  C364  1  0.26743890  0.71640645  0.80718916  1
  C  C365  1  0.26523042  0.54826026  0.66603194  1
  H  H366  1  0.31786660  0.60641207  0.59972591  1
  C  C367  1  0.42964452  0.51973480  0.92943471  1
  H  H368  1  0.45327277  0.58097543  0.80322226  1
  H  H369  1  0.25441532  0.51060227  0.85410546  1
  H  H370  1  0.25300371  0.74679182  0.86719630  1
  C  C371  1  0.26108281  0.63237876  0.70388715  1
  O  O372  1  0.32880801  0.99948927  0.83544669  1
  Cu  Cu373  1  0.25755688  0.89943868  0.90918819  1
  C  C374  1  0.48513508  0.86027359  0.73380369  1
  C  C375  1  0.48888896  0.94961547  0.74494613  1
  H  H376  1  0.47403323  0.98475159  0.71519425  1
  O  O377  1  0.37609915  0.76566079  0.74404138  1
  O  O378  1  0.28630617  0.95497337  0.96510879  1
  Cu  Cu379  1  0.38555449  0.80232015  0.58000311  1
  C  C380  1  0.35870213  0.93916121  0.97933117  1
  O  O381  1  0.44343684  0.81020764  0.59571165  1
  Cu  Cu382  1  0.32912934  0.86104520  0.85996438  1
  H  H383  1  0.44207288  0.90535223  0.61850672  1
  C  C384  1  0.33835459  0.76054606  0.79107137  1
  C  C385  1  0.43254543  0.91566634  0.98789303  1
  H  H386  1  0.44835365  0.79196120  0.96351872  1
  C  C387  1  0.40094941  0.94722140  0.93714091  1
  O  O388  1  0.48451599  0.77047839  0.73494572  1
  C  C389  1  0.32296990  0.96820285  0.92662527  1
  H  H390  1  0.25407383  0.92224692  0.56545873  1
  H  H391  1  0.40740725  0.97689444  0.86221725  1
  C  C392  1  0.33329665  0.88657453  0.60004465  1
  C  C393  1  0.47018188  0.81126486  0.68730516  1
  C  C394  1  0.47017642  0.90695807  0.69000177  1
  O  O395  1  0.37150418  0.87277112  0.60661702  1
  O  O396  1  0.30669862  0.87286791  0.68778775  1
  O  O397  1  0.32535503  0.79367808  0.87208390  1
  H  H398  1  0.46493032  0.91782331  0.95513409  1
  C  C399  1  0.62236290  0.08682503  0.41109053  1
  H  H400  1  0.60266808  0.17375780  0.22567464  1
  C  C401  1  0.65352914  0.04434168  0.39730207  1
  H  H402  1  0.53936992  0.09619378  0.19117942  1
  C  C403  1  0.57617637  0.07916553  0.41275000  1
  O  O404  1  0.55623942  0.03968572  0.36275730  1
  H  H405  1  0.68003005  0.06890919  0.20523690  1
  C  C406  1  0.67983661  0.03893807  0.28041102  1
  H  H407  1  0.67824072  0.20115206  0.17038977  1
  C  C408  1  0.61010083  0.20434607  0.15708574  1
  O  O409  1  0.52987139  0.16578413  0.20144035  1
  C  C410  1  0.65123428  0.21917191  0.12568493  1
  C  C411  1  0.54158048  0.13134123  0.12287795  1
  C  C412  1  0.64061301  0.13532435  0.44413075  1
  H  H413  1  0.67493756  0.14596134  0.44003772  1
  C  C414  1  0.53236719  0.22307791  0.15730418  1
  C  C415  1  0.57596900  0.23799171  0.12042119  1
  H  H416  1  0.60240841  0.03009366  0.22771256  1
  H  H417  1  0.73364692  0.22665637  0.13660811  1
  C  C418  1  0.54954914  0.11843626  0.46096607  1
  C  C419  1  0.60655649  0.16644114  0.47453004  1
  O  O420  1  0.69843362  0.23726734  0.44229878  1
  C  C421  1  0.56337924  0.16896152  0.48931808  1
  C  C422  1  0.58463073  0.00086816  0.28573929  1
  O  O423  1  0.50253508  0.24933426  0.15320864  1
  C  C424  1  0.50218128  0.10780579  0.47401645  1
  C  C425  1  0.66788060  0.49580914  0.35300097  1
  H  H426  1  0.51698555  0.46670516  0.39890677  1
  C  C427  1  0.72606396  0.26771624  0.45731028  1
  C  C428  1  0.73740278  0.25873807  0.06978922  1
  C  C429  1  0.58918300  0.48713820  0.40355931  1
  H  H430  1  0.71997695  0.49732269  0.09074067  1
  C  C431  1  0.74810474  0.49888567  0.30021681  1
  H  H432  1  0.71356283  0.40564165  0.06580350  1
  H  H433  1  0.65202882  0.39483867  0.26229041  1
  H  H434  1  0.55703255  0.42133272  0.34232120  1
  C  C435  1  0.55081774  0.45095603  0.42060551  1
  C  C436  1  0.71604433  0.41893624  0.32389787  1
  H  H437  1  0.55124340  0.29966675  0.01964488  1
  C  C438  1  0.65747560  0.26213589  0.03888280  1
  C  C439  1  0.73320422  0.47945389  0.00355179  1
  C  C440  1  0.71017594  0.47503182  0.32689852  1
  H  H441  1  0.65711946  0.30658484  0.32446118  1
  C  C442  1  0.72251936  0.31990427  0.39985400  1
  C  C443  1  0.68333237  0.38246689  0.29640830  1
  C  C444  1  0.58104793  0.28110848  0.04256348  1
  C  C445  1  0.68607504  0.33176803  0.33172252  1
  O  O446  1  0.63623860  0.46614673  0.36972646  1
  H  H447  1  0.57676639  0.45171202  0.01498019  1
  C  C448  1  0.70154856  0.27951671  0.00543219  1
  C  C449  1  0.59154301  0.17250579  0.80294576  1
  C  C450  1  0.56553119  0.17272899  0.91365485  1
  H  H451  1  0.60588694  0.13841528  0.75899853  1
  H  H452  1  0.67702994  0.07334231  0.79973258  1
  C  C453  1  0.69104887  0.03780863  0.83462217  1
  C  C454  1  0.60121550  0.21699310  0.72485427  1
  C  C455  1  0.53216054  0.04172316  0.90042267  1
  H  H456  1  0.62622622  0.21286401  0.64567126  1
  C  C457  1  0.73040905  0.02333386  0.78172687  1
  H  H458  1  0.72766576  0.13101495  0.74150444  1
  C  C459  1  0.62155977  0.01166011  0.94197314  1
  H  H460  1  0.51323956  0.03954736  0.58602859  1
  C  C461  1  0.73837240  0.10841073  0.65666202  1
  C  C462  1  0.56577430  0.07355804  0.94610208  1
  H  H463  1  0.73541700  0.17225281  0.52671267  1
  C  C464  1  0.74424764  0.13292424  0.53638780  1
  H  H465  1  0.62872702  0.01439577  0.58941749  1
  H  H466  1  0.54937429  0.20858960  0.93858470  1
  C  C467  1  0.60840983  0.06271229  0.96196330  1
  C  C468  1  0.66921166  0.00183239  0.91916398  1
  C  C469  1  0.74746674  0.05598527  0.67189951  1
  H  H470  1  0.63114522  0.09357419  0.98385349  1
  C  C471  1  0.55841444  0.12867498  0.99743162  1
  H  H472  1  0.51389919  0.12731259  0.81385093  1
  C  C473  1  0.65333272  0.01037729  0.50651896  1
  H  H474  1  0.54404973  0.20108639  0.53106131  1
  C  C475  1  0.65219309  0.39186454  0.61457589  1
  O  O476  1  0.67874189  0.33097465  0.81306087  1
  O  O477  1  0.54145842  0.34621134  0.73785409  1
  H  H478  1  0.64625306  0.49057577  0.58597634  1
  C  C479  1  0.57867592  0.26008682  0.73774352  1
  H  H480  1  0.63819858  0.35867128  0.56955249  1
  C  C481  1  0.55809285  0.30656620  0.73923679  1
  C  C482  1  0.68742881  0.37555836  0.71367831  1
  H  H483  1  0.69947851  0.40906302  0.76551146  1
  C  C484  1  0.70666721  0.31687592  0.90021864  1
  H  H485  1  0.71249760  0.35832897  0.64721107  1
  H  H486  1  0.66642176  0.41306079  0.52608656  1
  H  H487  1  0.62381108  0.40889539  0.66921733  1
  H  H488  1  0.62592210  0.32470762  0.92720260  1
  C  C489  1  0.74586308  0.34520665  0.91854796  1
  H  H490  1  0.55143577  0.44660577  0.86336719  1
  C  C491  1  0.56777233  0.47286609  0.92528845  1
  H  H492  1  0.55108236  0.43275279  0.52232137  1
  H  H493  1  0.59944804  0.47858107  0.87271123  1
  C  C494  1  0.73325284  0.42765406  0.99681364  1
  C  C495  1  0.62151404  0.29051022  0.99537867  1
  C  C496  1  0.63225998  0.58307350  0.37176736  1
  C  C497  1  0.56960085  0.62695197  0.28998242  1
  C  C498  1  0.67094306  0.55026949  0.35280096  1
  C  C499  1  0.60261947  0.59281979  0.26754709  1
  H  H500  1  0.54318068  0.63446507  0.21886519  1
  H  H501  1  0.60927824  0.57510348  0.17520574  1
  C  C502  1  0.70784988  0.57833369  0.32831100  1
  H  H503  1  0.70707892  0.61908544  0.32211972  1
  C  C504  1  0.56840175  0.65203498  0.41663403  1
  H  H505  1  0.58188055  0.51017163  0.31457260  1
  C  C506  1  0.53631880  0.69060421  0.43714812  1
  H  H507  1  0.54455705  0.52767672  0.06035043  1
  O  O508  1  0.51088884  0.70043947  0.34171816  1
  H  H509  1  0.59065483  0.51310764  0.48836615  1
  C  C510  1  0.62466457  0.60324720  0.49742331  1
  O  O511  1  0.74423777  0.57688756  0.00895919  1
  C  C512  1  0.74635910  0.55277185  0.30374149  1
  C  C513  1  0.51549563  0.71757224  0.01401013  1
  C  C514  1  0.55291732  0.84387536  0.35180172  1
  C  C515  1  0.50367462  0.76918235  0.08106296  1
  C  C516  1  0.72686554  0.80882150  0.05198740  1
  H  H517  1  0.65877815  0.81322866  0.44950839  1
  C  C518  1  0.52233048  0.83111545  0.24803526  1
  H  H519  1  0.70833747  0.79036789  0.13104871  1
  C  C520  1  0.67715058  0.96702438  0.49417232  1
  C  C521  1  0.56601521  0.96428086  0.18531314  1
  H  H522  1  0.55688322  0.76203573  0.21247947  1
  C  C523  1  0.72142534  0.90991714  0.35541623  1
  H  H524  1  0.51173175  0.89161111  0.48197698  1
  C  C525  1  0.70053707  0.99246749  0.27042384  1
  C  C526  1  0.54482532  0.87643317  0.46102119  1
  H  H527  1  0.60514130  0.98472573  0.35915979  1
  H  H528  1  0.58981403  0.94668232  0.11067297  1
  C  C529  1  0.53150877  0.78677862  0.18362155  1
  H  H530  1  0.71860034  0.98551052  0.18143790  1
  H  H531  1  0.54988651  0.93415206  0.24271896  1
  C  C532  1  0.59581632  0.82179093  0.34570671  1
  O  O533  1  0.71434074  0.87377258  0.43477558  1
  H  H534  1  0.54166823  0.98502059  0.12414580  1
  H  H535  1  0.68794130  0.86964143  0.06945567  1
  O  O536  1  0.74310303  0.90438490  0.25069282  1
  C  C537  1  0.62591907  0.83132354  0.44255804  1
  H  H538  1  0.60586113  0.79949811  0.25841675  1
  C  C539  1  0.69968276  0.95814763  0.37578708  1
  H  H540  1  0.66704891  0.92666230  0.01293095  1
  C  C541  1  0.71588077  0.85599528  0.01755242  1
  C  C542  1  0.69707227  0.68944123  0.75948693  1
  C  C543  1  0.65132049  0.63127480  0.86962366  1
  C  C544  1  0.61722106  0.66638897  0.86622755  1
  C  C545  1  0.66384799  0.72248809  0.73686255  1
  C  C546  1  0.69037318  0.64079514  0.81102767  1
  C  C547  1  0.62364871  0.71114778  0.78626601  1
  H  H548  1  0.71577634  0.61030171  0.81413326  1
  H  H549  1  0.58795808  0.65720773  0.61980900  1
  C  C550  1  0.57314282  0.66438567  0.92411029  1
  C  C551  1  0.55588951  0.71138714  0.96023501  1
  C  C552  1  0.69866968  0.51546823  0.68772166  1
  O  O553  1  0.53023939  0.71553672  0.54152954  1
  H  H554  1  0.64573912  0.59194937  0.91145745  1
  C  C555  1  0.65774498  0.50397120  0.67745053  1
  C  C556  1  0.73932797  0.70244978  0.70052615  1
  O  O557  1  0.56885693  0.57436027  0.91238866  1
  C  C558  1  0.55055177  0.61827705  0.94337050  1
  H  H559  1  0.64426169  0.59334095  0.58376676  1
  O  O560  1  0.74504221  0.74356851  0.66166341  1
  H  H561  1  0.51310952  0.52761317  0.92855878  1
  H  H562  1  0.63539346  0.50269329  0.76125001  1
  H  H563  1  0.72006010  0.51821317  0.60229820  1
  C  C564  1  0.59318790  0.63814140  0.52634630  1
  H  H565  1  0.71203143  0.52484358  0.78341361  1
  H  H566  1  0.59779927  0.73729771  0.77117338  1
  H  H567  1  0.57451271  0.74567239  0.95077978  1
  C  C568  1  0.50885696  0.62712908  0.99396915  1
  C  C569  1  0.54736358  0.52470066  0.95372630  1
  Cu  Cu570  1  0.73609199  0.86495543  0.60828824  1
  C  C571  1  0.68554088  0.95352833  0.95186659  1
  C  C572  1  0.53797939  0.89718176  0.87912968  1
  H  H573  1  0.66883908  0.75903904  0.68515623  1
  C  C574  1  0.72674147  0.94124953  0.90788941  1
  C  C575  1  0.64378564  0.86959048  0.66158575  1
  H  H576  1  0.52949710  0.81489162  0.84927172  1
  H  H577  1  0.59930680  0.93728208  0.89669459  1
  C  C578  1  0.61374559  0.86090274  0.55393494  1
  C  C579  1  0.73771738  0.88701313  0.92430807  1
  C  C580  1  0.58920621  0.97646167  0.91448465  1
  C  C581  1  0.52387604  0.94676783  0.83488704  1
  O  O582  1  0.68217780  0.85057931  0.66349008  1
  H  H583  1  0.56190714  0.89749355  0.96168875  1
  C  C584  1  0.51955095  0.85450926  0.82793873  1
  C  C585  1  0.54620749  0.99075783  0.89288023  1
  C  C586  1  0.57368263  0.88458010  0.56285168  1
  H  H587  1  0.67857115  0.93621164  0.56653834  1
  O  O588  1  0.63081437  0.89197128  0.75908535  1
  H  H589  1  0.56666915  0.90983847  0.64697886  1
  C  C590  1  0.87862516  0.18945049  0.07966217  1
  C  C591  1  0.93919598  0.15898075  0.10150982  1
  O  O592  1  0.93653578  0.19530082  0.19163220  1
  Cu  Cu593  1  0.83652342  0.08770539  0.17346313  1
  O  O594  1  0.77848528  0.10646856  0.20491511  1
  O  O595  1  0.82449847  0.02459980  0.11533675  1
  C  C596  1  0.90378941  0.15024654  0.02328470  1
  C  C597  1  0.89806126  0.21688133  0.18755834  1
  O  O598  1  0.85659834  0.09086695  0.34523751  1
  H  H599  1  0.96896041  0.14057902  0.08874138  1
  C  C600  1  0.97663105  0.08956472  0.33553444  1
  O  O601  1  0.84629722  0.17107231  0.38046695  1
  H  H602  1  0.77658986  0.03083704  0.35721869  1
  Cu  Cu603  1  0.80342929  0.21180130  0.42120812  1
  C  C604  1  0.76610835  0.13189041  0.30177347  1
  H  H605  1  0.96094770  0.12268517  0.28686123  1
  C  C606  1  0.86382312  0.13076006  0.40967989  1
  H  H607  1  0.95391506  0.05773643  0.31906906  1
  O  O608  1  0.76776764  0.17944257  0.29315263  1
  C  C609  1  0.83816599  0.20526785  0.04092748  1
  C  C610  1  0.89427613  0.01524135  0.04017076  1
  C  C611  1  0.76319586  0.10673531  0.43075837  1
  C  C612  1  0.76780037  0.05381103  0.44328060  1
  H  H613  1  0.98102304  0.09428205  0.44742468  1
  C  C614  1  0.75540608  0.40078328  0.37986267  1
  C  C615  1  0.82013274  0.25109400  0.08663305  1
  O  O616  1  0.76433258  0.25428251  0.49879636  1
  H  H617  1  0.95451162  0.25054464  0.34787267  1
  C  C618  1  0.86143438  0.31318848  0.44474633  1
  H  H619  1  0.83142302  0.32765620  0.40495589  1
  C  C620  1  0.94951921  0.36202023  0.10519060  1
  H  H621  1  0.94211837  0.38246455  0.48210472  1
  O  O622  1  0.88876569  0.45502725  0.47426817  1
  C  C623  1  0.77850026  0.27576737  0.04004786  1
  C  C624  1  0.91800613  0.39053762  0.15402929  1
  H  H625  1  0.98203334  0.25288689  0.11042130  1
  C  C626  1  0.88739458  0.44167933  0.34200182  1
  H  H627  1  0.82048338  0.30967293  0.23171053  1
  C  C628  1  0.75822114  0.35212618  0.42692655  1
  C  C629  1  0.83772817  0.27606240  0.19362138  1
  H  H630  1  0.77689269  0.47864681  0.28108829  1
  C  C631  1  0.97973607  0.34747077  0.32901606  1
  C  C632  1  0.91802625  0.40274987  0.29312457  1
  O  O633  1  0.86106699  0.46077463  0.27332523  1
  C  C634  1  0.94568893  0.37642417  0.37339685  1
  C  C635  1  0.93276896  0.26943732  0.41512889  1
  C  C636  1  0.88958210  0.27895094  0.37911614  1
  H  H637  1  0.78114262  0.42589959  0.39761133  1
  C  C638  1  0.87558543  0.25798255  0.25000548  1
  H  H639  1  0.89237508  0.40296533  0.09423903  1
  C  C640  1  0.98224335  0.34239864  0.19131088  1
  C  C641  1  0.94183730  0.48143607  0.01435247  1
  H  H642  1  0.98396268  0.49054162  0.18792820  1
  H  H643  1  0.78771355  0.33620568  0.46873082  1
  C  C644  1  0.89455098  0.13431606  0.52044623  1
  C  C645  1  0.90423439  0.17976284  0.58337626  1
  C  C646  1  0.93073677  0.17594476  0.69058334  1
  C  C647  1  0.94391247  0.08614800  0.66781009  1
  C  C648  1  0.95494708  0.13383430  0.73147797  1
  H  H649  1  0.89032047  0.11505106  0.81148309  1
  H  H650  1  0.89388909  0.21773723  0.54808735  1
  C  C651  1  0.91452940  0.08965147  0.56971741  1
  H  H652  1  0.96366632  0.05173023  0.68076832  1
  H  H653  1  0.90601046  0.05664438  0.51223276  1
  H  H654  1  0.94054041  0.21225470  0.73207317  1
  H  H655  1  0.96679805  0.20512207  0.91279517  1
  H  H656  1  0.82572769  0.18550720  0.95608974  1
  C  C657  1  0.89577637  0.10795819  0.91983213  1
  H  H658  1  0.82772241  0.03078986  0.72942228  1
  C  C659  1  0.76400172  0.02967473  0.56142346  1
  H  H660  1  0.89249124  0.00961992  0.64952329  1
  C  C661  1  0.99622006  0.18099094  0.89536169  1
  C  C662  1  0.99661672  0.14315313  0.80041089  1
  C  C663  1  0.89525528  0.06314676  0.98153574  1
  H  H664  1  0.89590090  0.47426388  0.86096129  1
  H  H665  1  0.97522696  0.27500564  0.58365254  1
  C  C666  1  0.92211400  0.32892075  0.75132571  1
  C  C667  1  0.78085004  0.32537269  0.98238202  1
  C  C668  1  0.87269871  0.32776118  0.56734007  1
  H  H669  1  0.81296219  0.34476709  0.98058814  1
  H  H670  1  0.80651754  0.40259672  0.74917273  1
  O  O671  1  0.96272172  0.32442170  0.79198114  1
  C  C672  1  0.97303499  0.44729036  0.94725492  1
  Cu  Cu673  1  0.99774137  0.37924359  0.73157918  1
  O  O674  1  0.99065963  0.42433781  0.57127597  1
  C  C675  1  0.78368532  0.42633674  0.80944230  1
  C  C676  1  0.94356586  0.28438344  0.54076805  1
  H  H677  1  0.85366504  0.35942603  0.60968665  1
  C  C678  1  0.91352723  0.30969354  0.61727865  1
  O  O679  1  0.96376581  0.42428373  0.83781039  1
  C  C680  1  0.90443513  0.49445999  0.94597449  1
  O  O681  1  0.89605207  0.35191790  0.81021159  1
  C  C682  1  0.78408162  0.47865230  0.80820751  1
  C  C683  1  0.75638739  0.40109621  0.89906559  1
  H  H684  1  0.94846920  0.35197787  0.99729095  1
  C  C685  1  0.78519198  0.58592051  0.27538593  1
  C  C686  1  0.83026402  0.71734728  0.32070030  1
  C  C687  1  0.82877897  0.66208070  0.28028380  1
  C  C688  1  0.85618340  0.59056218  0.18435973  1
  C  C689  1  0.86405934  0.64215202  0.20679597  1
  C  C690  1  0.79238745  0.63617787  0.31646517  1
  O  O691  1  0.89922897  0.66576282  0.16066810  1
  C  C692  1  0.82041303  0.56178039  0.21152317  1
  C  C693  1  0.88904756  0.55471891  0.12202500  1
  C  C694  1  0.92748581  0.54001611  0.18317797  1
  H  H695  1  0.93760846  0.55500258  0.28455675  1
  H  H696  1  0.76795010  0.65684772  0.37643646  1
  H  H697  1  0.94901515  0.61366573  0.12105210  1
  C  C698  1  0.81361533  0.72629781  0.45212518  1
  H  H699  1  0.82109766  0.52142063  0.18556252  1
  H  H700  1  0.96958405  0.70082071  0.25702158  1
  H  H701  1  0.93137722  0.72532198  0.39340148  1
  C  C702  1  0.92892326  0.64036594  0.06498249  1
  C  C703  1  0.95497230  0.50323601  0.13137543  1
  Cu  Cu704  1  0.75042596  0.64347154  0.05066623  1
  H  H705  1  0.98827887  0.68271517  0.02765379  1
  O  O706  1  0.75233094  0.71023779  0.10388671  1
  C  C707  1  0.87630456  0.53013429  0.00453479  1
  C  C708  1  0.99985533  0.69001820  0.30473539  1
  H  H709  1  0.85837028  0.74930416  0.14429787  1
  C  C710  1  0.77388926  0.73520573  0.01892708  1
  C  C711  1  0.99597140  0.75119086  0.46905069  1
  H  H712  1  0.99731800  0.96100274  0.36904824  1
  O  O713  1  0.85506353  0.95190702  0.15958611  1
  C  C714  1  0.95048003  0.75645844  0.43354044  1
  C  C715  1  0.93324087  0.98373200  0.04497362  1
  C  C716  1  0.85616302  0.99564058  0.10357315  1
  C  C717  1  0.80894980  0.86632195  0.44450003  1
  C  C718  1  0.84399004  0.75701566  0.24120438  1
  O  O719  1  0.89929427  0.89828449  0.48239973  1
  O  O720  1  0.94464891  0.94677727  0.10297105  1
  Cu  Cu721  1  0.79863933  0.92752213  0.21161532  1
  C  C722  1  0.93120210  0.80431692  0.45500651  1
  C  C723  1  0.83595347  0.80663932  0.28112696  1
  Cu  Cu724  1  0.87573738  0.92970942  0.32193386  1
  C  C725  1  0.80757146  0.77513316  0.49716008  1
  H  H726  1  0.83762422  0.83891211  0.21308438  1
  O  O727  1  0.82152410  0.90262720  0.36636081  1
  H  H728  1  0.89682351  0.81254370  0.42893207  1
  C  C729  1  0.81806188  0.81548967  0.40586226  1
  C  C730  1  0.96289599  0.60744841  0.70826538  1
  Cu  Cu731  1  0.80204500  0.65269186  0.86613041  1
  O  O732  1  0.79170009  0.58279117  0.84787023  1
  C  C733  1  0.97229622  0.57051956  0.80189898  1
  O  O734  1  0.90478937  0.55462789  0.64767315  1
  H  H735  1  0.95173234  0.53928661  0.81827133  1
  C  C736  1  0.92290191  0.59969970  0.62982890  1
  O  O737  1  0.80469579  0.71585872  0.95496031  1
  C  C738  1  0.76514464  0.55733418  0.91947261  1
  H  H739  1  0.97981333  0.68058196  0.60171940  1
  H  H740  1  0.80508647  0.50164414  0.74454784  1
  H  H741  1  0.84472673  0.53611457  0.96030756  1
  O  O742  1  0.90862367  0.62616234  0.54549865  1
  C  C743  1  0.98876299  0.64953127  0.67776556  1
  H  H744  1  0.94097437  0.70810477  0.93495003  1
  O  O745  1  0.77063932  0.67061509  0.71108141  1
  H  H746  1  0.96719828  0.65063247  0.89229920  1
  H  H747  1  0.80961612  0.69511996  0.52119221  1
  O  O748  1  0.97423597  0.50439899  0.55903071  1
  C  C749  1  0.75877687  0.50312630  0.90887152  1
  Cu  Cu750  1  0.91827812  0.50485231  0.53415348  1
  H  H751  1  0.90868793  0.61513039  0.99932039  1
  C  C752  1  0.95749456  0.67387192  0.97698338  1
  C  C753  1  0.87399884  0.97699638  0.68728687  1
  C  C754  1  0.75531456  0.98043814  0.84603141  1
  C  C755  1  0.93698162  0.89472402  0.52447613  1
  O  O756  1  0.79318988  0.87325230  0.55486723  1
  C  C757  1  0.99771268  0.83630846  0.56679522  1
  H  H758  1  0.76884895  0.98909876  0.56684115  1
  C  C759  1  0.95801229  0.84239871  0.50924681  1
  H  H760  1  0.79372616  0.88198087  0.78982734  1
  C  C761  1  0.77282921  0.86138698  0.86028498  1
  H  H762  1  0.81430425  0.79610869  0.84371359  1
  H  H763  1  0.79648593  0.78407121  0.59983722  1
  C  C764  1  0.76108099  0.78551737  0.98426868  1
  H  H765  1  0.89503991  0.95445781  0.74723719  1
  O  O766  1  0.80038381  0.96154690  0.78193785  1
  O  O767  1  0.95492479  0.92863686  0.58000039  1
  C  C768  1  0.78421471  0.81210395  0.88614586  1
  H  H769  1  0.86223870  0.95670427  0.60278788  1
  H  H770  1  0.96416572  0.99346937  0.98595154  1
  C  C771  1  0.83500412  0.99389696  0.77710386  1
  H  H772  1  0.77675290  0.99562300  0.92330872  1
  H  H773  1  0.84420095  0.99915292  0.88215828  1
