# generated using pymatgen
data_CuH15C22O5
_symmetry_space_group_name_H-M   'P 1'
_cell_length_a   32.38691146
_cell_length_b   28.17891671
_cell_length_c   11.48490226
_cell_angle_alpha   90.00000000
_cell_angle_beta   90.00000000
_cell_angle_gamma   90.00000000
_symmetry_Int_Tables_number   1
_chemical_formula_structural   CuH15C22O5
_chemical_formula_sum   'Cu18 H270 C396 O90'
_cell_volume   10481.44430296
_cell_formula_units_Z   18
loop_
 _symmetry_equiv_pos_site_id
 _symmetry_equiv_pos_as_xyz
  1  'x, y, z'
loop_
 _atom_site_type_symbol
 _atom_site_label
 _atom_site_symmetry_multiplicity
 _atom_site_fract_x
 _atom_site_fract_y
 _atom_site_fract_z
 _atom_site_occupancy
  C  C0  1  0.01229981  0.02400410  0.87785253  1
  H  H1  1  0.03185383  0.09347720  0.95195725  1
  H  H2  1  0.00098369  0.19464728  0.45675823  1
  H  H3  1  0.13062951  0.11345627  0.12136626  1
  C  C4  1  0.07402703  0.04394240  0.69806395  1
  C  C5  1  0.09049289  0.13992932  0.93290765  1
  H  H6  1  0.09845995  0.13808028  0.63876595  1
  C  C7  1  0.08592906  0.12097554  0.81867396  1
  C  C8  1  0.22520425  0.01696845  0.72693850  1
  C  C9  1  0.10327544  0.14789741  0.72682310  1
  H  H10  1  0.15789527  0.04564085  0.99452281  1
  H  H11  1  0.17883740  0.01548780  0.53006979  1
  O  O12  1  0.18309936  0.21628687  0.56190234  1
  C  C13  1  0.03562875  0.06518066  0.88199088  1
  H  H14  1  0.15742061  0.10986967  0.62591656  1
  C  C15  1  0.12347330  0.07702568  0.14064049  1
  H  H16  1  0.18711931  0.13351082  0.74546268  1
  C  C17  1  0.20232935  0.16480696  0.56934186  1
  C  C18  1  0.14809405  0.14786383  0.29952622  1
  H  H19  1  0.11023109  0.19694065  0.05190517  1
  H  H20  1  0.15235210  0.18742927  0.31329109  1
  H  H21  1  0.07628926  0.12047520  0.00861719  1
  C  C22  1  0.17958437  0.11659316  0.26086197  1
  H  H23  1  0.16019552  0.05174223  0.41279267  1
  C  C24  1  0.11129489  0.18089213  0.96018919  1
  C  C25  1  0.12815137  0.20403724  0.86369212  1
  O  O26  1  0.05688527  0.09351171  0.38528906  1
  C  C27  1  0.06433123  0.07448259  0.79543177  1
  C  C28  1  0.12347750  0.19115636  0.74798189  1
  C  C29  1  0.23631466  0.23458453  0.42003904  1
  O  O30  1  0.21049631  0.07796086  0.89861932  1
  H  H31  1  0.19852411  0.15312219  0.47723333  1
  C  C32  1  0.20877817  0.09222251  0.22868224  1
  C  C33  1  0.09870672  0.06478398  0.23538288  1
  C  C34  1  0.18766779  0.12427546  0.65055218  1
  H  H35  1  0.13446073  0.21206706  0.67312073  1
  H  H36  1  0.23505677  0.17593121  0.58837072  1
  H  H37  1  0.01295427  0.24923508  0.92798429  1
  C  C38  1  0.15560899  0.24624508  0.89458928  1
  C  C39  1  0.13651589  0.04056496  0.06401877  1
  C  C40  1  0.08516651  0.10018429  0.32213841  1
  O  O41  1  0.10958118  0.14737623  0.32483019  1
  C  C42  1  0.15394403  0.02008635  0.46856573  1
  C  C43  1  0.22714715  0.05475503  0.81581320  1
  H  H44  1  0.05944447  0.21186123  0.82109858  1
  C  C45  1  0.24219173  0.06104521  0.18752163  1
  C  C46  1  0.22747459  0.16066041  0.02127854  1
  O  O47  1  0.10732730  0.05256837  0.63508538  1
  H  H48  1  0.23507481  0.15290189  0.11312360  1
  H  H49  1  0.01951346  0.00742404  0.46510851  1
  C  C50  1  0.04117753  0.23695895  0.76553541  1
  H  H51  1  0.02706301  0.21711192  0.69221241  1
  H  H52  1  0.20986351  0.09268182  0.63579693  1
  C  C53  1  0.04682411  0.00441796  0.69711619  1
  C  C54  1  0.24008604  0.11815509  0.94455079  1
  O  O55  1  0.17551280  0.24878878  0.99803513  1
  H  H56  1  0.19393122  0.16852261  0.01878976  1
  C  C57  1  0.11253458  0.01950383  0.53911916  1
  H  H58  1  0.08469881  0.02391043  0.48338181  1
  C  C59  1  0.20228840  0.24650553  0.49676461  1
  H  H60  1  0.06413375  0.01369140  0.34001782  1
  C  C61  1  0.08418153  0.01700442  0.26231536  1
  H  H62  1  0.24186919  0.19526987  0.99747561  1
  H  H63  1  0.06469361  0.24622527  0.23470404  1
  C  C64  1  0.05926959  0.44975344  0.14869392  1
  H  H65  1  0.20287705  0.38808436  0.23596167  1
  C  C66  1  0.07951915  0.47686338  0.24662750  1
  C  C67  1  0.15600910  0.31929510  0.55419339  1
  C  C68  1  0.06175108  0.46600147  0.35775464  1
  H  H69  1  0.03722933  0.43948687  0.36380401  1
  H  H70  1  0.07195687  0.47715316  0.54677093  1
  H  H71  1  0.20253050  0.36479039  0.64184476  1
  C  C72  1  0.08239392  0.48489190  0.45605552  1
  O  O73  1  0.14036508  0.27744601  0.25247646  1
  O  O74  1  0.02837627  0.42626882  0.15619343  1
  C  C75  1  0.08696331  0.30376849  0.13117346  1
  C  C76  1  0.20830848  0.32800967  0.41511564  1
  O  O77  1  0.03069302  0.38516095  0.73670293  1
  H  H78  1  0.05293593  0.32733190  0.60846895  1
  H  H79  1  0.19983108  0.40091644  0.00576336  1
  C  C80  1  0.06769816  0.39557925  0.75245876  1
  O  O81  1  0.07760670  0.45747162  0.05130420  1
  Cu  Cu82  1  0.05723278  0.47895291  0.90233714  1
  C  C83  1  0.08543546  0.33573891  0.60889015  1
  C  C84  1  0.13136893  0.30406097  0.17581912  1
  O  O85  1  0.08040754  0.42180197  0.83540336  1
  O  O86  1  0.15935103  0.33045805  0.12268352  1
  H  H87  1  0.02884069  0.37558094  0.95305427  1
  C  C88  1  0.21970548  0.46011068  0.11274499  1
  H  H89  1  0.09986817  0.36536776  0.02629365  1
  C  C90  1  0.00430984  0.48890547  0.71133780  1
  O  O91  1  0.00789774  0.46716437  0.61357302  1
  C  C92  1  0.07665325  0.33939438  0.05267827  1
  H  H93  1  0.15326344  0.40446709  0.77065206  1
  H  H94  1  0.19648188  0.36489481  0.41180304  1
  H  H95  1  0.20986849  0.45569372  0.68628752  1
  C  C96  1  0.19073254  0.29418794  0.48643229  1
  C  C97  1  0.16986287  0.35393710  0.63504986  1
  C  C98  1  0.11338770  0.30639742  0.54809122  1
  H  H99  1  0.02230113  0.30666773  0.86065137  1
  Cu  Cu100  1  0.20302509  0.29762909  0.05970129  1
  C  C101  1  0.23310347  0.48355550  0.70138729  1
  C  C102  1  0.09978401  0.36836148  0.69187781  1
  C  C103  1  0.14244028  0.37966733  0.70305856  1
  C  C104  1  0.05606111  0.27351322  0.17349249  1
  C  C105  1  0.03653716  0.34597512  0.01224868  1
  C  C106  1  0.00553360  0.31506943  0.05686403  1
  C  C107  1  0.16539413  0.46674539  0.97033278  1
  C  C108  1  0.19530086  0.43952685  0.02380883  1
  H  H109  1  0.14847300  0.45394749  0.88942028  1
  C  C110  1  0.23717434  0.39232153  0.22776449  1
  H  H111  1  0.10252302  0.27510436  0.50094587  1
  C  C112  1  0.24229408  0.31351915  0.34424556  1
  O  O113  1  0.16113246  0.27612082  0.82376024  1
  C  C114  1  0.01607391  0.27677283  0.13798385  1
  C  C115  1  0.01349982  0.26868660  0.84381496  1
  H  H116  1  0.06595678  0.25908106  0.72663490  1
  C  C117  1  0.04296501  0.58185229  0.44802728  1
  H  H118  1  0.06700063  0.57810926  0.38040611  1
  H  H119  1  0.18126190  0.57285900  0.11326551  1
  H  H120  1  0.16188921  0.64062505  0.11875809  1
  C  C121  1  0.15847664  0.51414926  0.00472675  1
  H  H122  1  0.01084924  0.51847872  0.14425101  1
  Cu  Cu123  1  0.07432372  0.62015980  0.00448680  1
  O  O124  1  0.09122439  0.67347428  0.09584981  1
  C  C125  1  0.16103379  0.58440501  0.73260247  1
  C  C126  1  0.05900036  0.63686042  0.79059782  1
  C  C127  1  0.11292202  0.71422488  0.86483072  1
  H  H128  1  0.03824075  0.60979925  0.75754537  1
  O  O129  1  0.12302934  0.58611238  0.98518924  1
  C  C130  1  0.12499850  0.65532170  0.40006634  1
  C  C131  1  0.16105273  0.64385686  0.45361013  1
  C  C132  1  0.09857643  0.58761790  0.58982231  1
  H  H133  1  0.17144487  0.59541303  0.81890292  1
  C  C134  1  0.18138311  0.55023018  0.66310575  1
  H  H135  1  0.16380946  0.67213683  0.78789049  1
  C  C136  1  0.04921750  0.74533951  0.96552049  1
  C  C137  1  0.09143836  0.67126266  0.20597023  1
  C  C138  1  0.16284770  0.64072700  0.21440714  1
  C  C139  1  0.10939996  0.52186497  0.42298596  1
  C  C140  1  0.07027171  0.71245101  0.88947128  1
  C  C141  1  0.12171723  0.60055587  0.68830013  1
  C  C142  1  0.12967737  0.67627815  0.80546492  1
  C  C143  1  0.19980618  0.63519197  0.39557462  1
  C  C144  1  0.18367058  0.53548596  0.09335305  1
  H  H145  1  0.22272262  0.71793378  0.76374784  1
  C  C146  1  0.10327429  0.63868030  0.76886839  1
  O  O147  1  0.02832192  0.59562194  0.05949313  1
  H  H148  1  0.22755528  0.61743411  0.22814816  1
  C  C149  1  0.20012094  0.63007148  0.27091626  1
  H  H150  1  0.12318722  0.51032796  0.13671883  1
  H  H151  1  0.13005955  0.74453013  0.89814941  1
  C  C152  1  0.12665698  0.65165892  0.27538885  1
  C  C153  1  0.12673482  0.54291113  0.95374979  1
  H  H154  1  0.09723893  0.66619515  0.45074021  1
  O  O155  1  0.10378901  0.52464917  0.87427745  1
  H  H156  1  0.03782962  0.54707070  0.48909695  1
  O  O157  1  0.06266381  0.60464436  0.55146487  1
  H  H158  1  0.22687178  0.51905567  0.23681292  1
  H  H159  1  0.14846421  0.56467388  0.30951448  1
  C  C160  1  0.12262690  0.55070470  0.53648019  1
  C  C161  1  0.22429342  0.53160341  0.69322276  1
  H  H162  1  0.22148814  0.69574000  0.54637319  1
  C  C163  1  0.04265394  0.67625672  0.84715138  1
  Cu  Cu164  1  0.03840445  0.74410691  0.26749312  1
  O  O165  1  0.03492063  0.50414477  0.76619339  1
  O  O166  1  0.06167335  0.68491627  0.26435835  1
  C  C167  1  0.23877550  0.63032665  0.46633866  1
  H  H168  1  0.16277765  0.64421221  0.54989980  1
  O  O169  1  0.00996384  0.74473836  0.97963078  1
  C  C170  1  0.24436321  0.66709264  0.54277023  1
  C  C171  1  0.15896192  0.53053373  0.56784638  1
  H  H172  1  0.00888005  0.67989539  0.86453981  1
  C  C173  1  0.12560379  0.53605273  0.31712339  1
  C  C174  1  0.21024472  0.50691825  0.15581080  1
  C  C175  1  0.00294461  0.60053745  0.38655676  1
  H  H176  1  0.00879670  0.63870143  0.36373545  1
  H  H177  1  0.17608117  0.50373305  0.51354298  1
  C  C178  1  0.11150390  0.50711998  0.22377131  1
  C  C179  1  0.16614290  0.80688882  0.00711473  1
  C  C180  1  0.18922570  0.90236038  0.86605013  1
  O  O181  1  0.14146935  0.78802804  0.31322844  1
  C  C182  1  0.13772777  0.80279641  0.20882281  1
  H  H183  1  0.07154876  0.91547181  0.73134588  1
  Cu  Cu184  1  0.05420730  0.81459054  0.14328402  1
  H  H185  1  0.16850691  0.97080038  0.71040059  1
  O  O186  1  0.03365256  0.85449615  0.26694502  1
  H  H187  1  0.19662195  0.89541225  0.23554905  1
  C  C188  1  0.12751720  0.86716718  0.78101440  1
  H  H189  1  0.06991618  0.84849127  0.59326191  1
  C  C190  1  0.21239765  0.93463276  0.93528215  1
  H  H191  1  0.05781498  0.98069455  0.01778415  1
  C  C192  1  0.16932087  0.79154643  0.12596593  1
  C  C193  1  0.22342043  0.87067438  0.24017116  1
  C  C194  1  0.14434971  0.95866861  0.01500118  1
  C  C195  1  0.14565169  0.90359293  0.86528020  1
  C  C196  1  0.13952782  0.82431283  0.60601380  1
  C  C197  1  0.01731813  0.99396382  0.78193904  1
  H  H198  1  0.19104256  0.80147745  0.83003323  1
  C  C199  1  0.04617357  0.89154297  0.44997726  1
  O  O200  1  0.05182377  0.80926585  0.41757933  1
  C  C201  1  0.18721209  0.95896321  0.01910237  1
  H  H202  1  0.15623379  0.82000977  0.52171777  1
  H  H203  1  0.17215033  0.88945596  0.65401643  1
  C  C204  1  0.14907423  0.86171764  0.67646295  1
  C  C205  1  0.03241037  0.93504137  0.40510730  1
  C  C206  1  0.04436128  0.85035188  0.37082746  1
  H  H207  1  0.14219986  0.83321427  0.98441274  1
  C  C208  1  0.09100725  0.83871769  0.80745501  1
  C  C209  1  0.10971451  0.78815606  0.63143098  1
  C  C210  1  0.11997693  0.92972827  0.93722193  1
  C  C211  1  0.19581170  0.79208217  0.92460357  1
  H  H212  1  0.01568118  0.94136978  0.32195932  1
  C  C213  1  0.08741552  0.79859440  0.73638772  1
  O  O214  1  0.21177931  0.94243080  0.62169021  1
  H  H215  1  0.07137083  0.84347661  0.88670512  1
  C  C216  1  0.23081636  0.76508131  0.96000136  1
  O  O217  1  0.10972162  0.83226282  0.17779939  1
  C  C218  1  0.00550848  0.92864007  0.02582708  1
  C  C219  1  0.03094688  0.97119596  0.48940784  1
  H  H220  1  0.06259156  0.77380324  0.76083885  1
  C  C221  1  0.09926163  0.98096894  0.19591368  1
  O  O222  1  0.06923508  0.77945175  0.01213596  1
  H  H223  1  0.20461662  0.87495529  0.81319133  1
  H  H224  1  0.08970234  0.94228312  0.21080715  1
  C  C225  1  0.06035048  0.88356496  0.56817615  1
  C  C226  1  0.04618691  0.96534850  0.60451059  1
  O  O227  1  0.07915314  0.92199697  0.92635102  1
  C  C228  1  0.05898452  0.92018012  0.64500367  1
  H  H229  1  0.20268662  0.98073054  0.08442853  1
  C  C230  1  0.05163051  0.94141792  0.01776103  1
  C  C231  1  0.12354389  0.99422128  0.09567184  1
  H  H232  1  0.06733976  0.92533239  0.09602647  1
  H  H233  1  0.10967779  0.98284253  0.57485025  1
  H  H234  1  0.23044862  0.85989410  0.32674374  1
  C  C235  1  0.20186515  0.97496841  0.68227540  1
  Cu  Cu236  1  0.09685099  0.76915268  0.40479918  1
  H  H237  1  0.15430592  0.98523300  0.41903231  1
  O  O238  1  0.10603005  0.75416309  0.55486023  1
  C  C239  1  0.24715654  0.86166475  0.14614602  1
  H  H240  1  0.23983258  0.88031662  0.06303107  1
  H  H241  1  0.00035560  0.89191574  0.04861446  1
  C  C242  1  0.20516753  0.76608296  0.16359823  1
  C  C243  1  0.23430971  0.75435471  0.08166687  1
  H  H244  1  0.20814363  0.75159823  0.25452209  1
  C  C245  1  0.36001800  0.01785338  0.06606425  1
  H  H246  1  0.28027445  0.11526970  0.35684776  1
  C  C247  1  0.32715953  0.16624259  0.10091041  1
  C  C248  1  0.32705492  0.13761229  0.98922587  1
  H  H249  1  0.37985011  0.03936751  0.12446084  1
  H  H250  1  0.32616308  0.15791154  0.90528477  1
  C  C251  1  0.26785764  0.14953087  0.37469523  1
  C  C252  1  0.32997860  0.09032656  0.99197010  1
  C  C253  1  0.33232804  0.04176130  0.98524031  1
  H  H254  1  0.32550964  0.20625890  0.09947801  1
  O  O255  1  0.33084019  0.15519847  0.19892115  1
  H  H256  1  0.31131079  0.02070976  0.92618826  1
  O  O257  1  0.26340049  0.23712368  0.82340734  1
  C  C258  1  0.25143676  0.18701419  0.39302460  1
  H  H259  1  0.27574874  0.07687694  0.16878193  1
  C  C260  1  0.26035433  0.04156277  0.74547489  1
  H  H261  1  0.29409079  0.03875135  0.71355042  1
  H  H262  1  0.26314653  0.09398523  0.99277839  1
  H  H263  1  0.25273041  0.13060929  0.86080543  1
  O  O264  1  0.25099594  0.02010348  0.16358286  1
  H  H265  1  0.33185244  0.40923353  0.90493487  1
  C  C266  1  0.39191875  0.43257440  0.16688842  1
  C  C267  1  0.27255499  0.46533464  0.73448671  1
  C  C268  1  0.37963148  0.38890595  0.35366245  1
  H  H269  1  0.33406283  0.41584681  0.74391464  1
  H  H270  1  0.32751144  0.33992068  0.29614581  1
  C  C271  1  0.27216956  0.37340786  0.67104835  1
  C  C272  1  0.36509930  0.40885868  0.24622191  1
  O  O273  1  0.33850868  0.47716657  0.82488553  1
  H  H274  1  0.41153012  0.41862301  0.74455118  1
  H  H275  1  0.41087711  0.41342862  0.90087684  1
  C  C276  1  0.42023495  0.39277322  0.38209775  1
  C  C277  1  0.26166816  0.35661463  0.28226886  1
  C  C278  1  0.31991142  0.40651366  0.22186295  1
  H  H279  1  0.38080966  0.45278688  0.08898061  1
  H  H280  1  0.26608869  0.43609764  0.93151586  1
  C  C281  1  0.39427025  0.40493382  0.82097877  1
  H  H282  1  0.39492877  0.36516064  0.81789596  1
  C  C283  1  0.29207209  0.47063030  0.42243497  1
  H  H284  1  0.42983241  0.37627964  0.46367593  1
  C  C285  1  0.34982712  0.42422830  0.82982277  1
  C  C286  1  0.30335446  0.36353594  0.26530394  1
  C  C287  1  0.26608361  0.35944398  0.92486825  1
  H  H288  1  0.35833601  0.36990503  0.41402753  1
  C  C289  1  0.44764142  0.41474546  0.30163903  1
  C  C290  1  0.30494678  0.49370599  0.78202797  1
  O  O291  1  0.48584419  0.40348062  0.84984029  1
  C  C292  1  0.27042857  0.41216494  0.75285535  1
  C  C293  1  0.49214026  0.41703785  0.32729191  1
  C  C294  1  0.43327963  0.43451640  0.19579046  1
  C  C295  1  0.45236482  0.49468501  0.50050143  1
  C  C296  1  0.29737206  0.44218111  0.15921856  1
  C  C297  1  0.26697821  0.40584689  0.87598367  1
  H  H298  1  0.27011688  0.29898041  0.65166643  1
  O  O299  1  0.45805323  0.46071173  0.56846767  1
  C  C300  1  0.26856618  0.32813630  0.71378767  1
  H  H301  1  0.45375938  0.45537042  0.13736453  1
  C  C302  1  0.26487896  0.32271385  0.84063397  1
  H  H303  1  0.27771490  0.37969319  0.57604765  1
  O  O304  1  0.31326136  0.47847437  0.10600134  1
  H  H305  1  0.38417643  0.47036809  0.62813191  1
  H  H306  1  0.32281069  0.45575437  0.42778939  1
  C  C307  1  0.26007944  0.27215367  0.88232124  1
  H  H308  1  0.26512398  0.35505859  0.02322643  1
  H  H309  1  0.28211161  0.25254364  0.28839978  1
  H  H310  1  0.28488832  0.47740393  0.51315609  1
  C  C311  1  0.25908613  0.26675045  0.34764577  1
  O  O312  1  0.25202173  0.26934415  0.99839625  1
  C  C313  1  0.25378101  0.43164200  0.17418198  1
  H  H314  1  0.27055866  0.44182921  0.38585305  1
  O  O315  1  0.35231438  0.70168359  0.13934877  1
  H  H316  1  0.40572133  0.59245396  0.99371430  1
  C  C317  1  0.37709752  0.60180352  0.95053089  1
  H  H318  1  0.25943998  0.58912668  0.02194539  1
  C  C319  1  0.25549110  0.72332124  0.78676560  1
  H  H320  1  0.26486786  0.63195597  0.83828397  1
  H  H321  1  0.31253999  0.51641908  0.96358900  1
  H  H322  1  0.26927536  0.56559693  0.16903978  1
  H  H323  1  0.28864981  0.50528262  0.24756790  1
  C  C324  1  0.41243730  0.51648998  0.48796054  1
  C  C325  1  0.40546876  0.70823732  0.87738655  1
  H  H326  1  0.38005249  0.54519818  0.81967176  1
  H  H327  1  0.45669453  0.67689955  0.95284466  1
  C  C328  1  0.33816362  0.74169801  0.83765901  1
  H  H329  1  0.29592153  0.67721682  0.99050283  1
  C  C330  1  0.25731241  0.56228034  0.72632918  1
  O  O331  1  0.48156697  0.51286191  0.43808538  1
  C  C332  1  0.28704344  0.70351670  0.71514537  1
  H  H333  1  0.38859121  0.67442119  0.85541331  1
  C  C334  1  0.28787856  0.51823367  0.03661995  1
  H  H335  1  0.32054996  0.51842206  0.62069977  1
  H  H336  1  0.43516989  0.56024308  0.35161081  1
  C  C337  1  0.31481331  0.64801941  0.95568756  1
  C  C338  1  0.40950575  0.55654058  0.41083113  1
  H  H339  1  0.37060530  0.61419200  0.35547940  1
  C  C340  1  0.37411931  0.58271277  0.41204551  1
  C  C341  1  0.34598451  0.52890711  0.56450657  1
  H  H342  1  0.34055967  0.63571165  0.63068996  1
  C  C343  1  0.36168418  0.57256657  0.86104706  1
  C  C344  1  0.29767930  0.62312532  0.86385482  1
  C  C345  1  0.34287821  0.57019527  0.49745145  1
  C  C346  1  0.27978385  0.66960768  0.61329500  1
  O  O347  1  0.40024236  0.64646374  0.15647317  1
  C  C348  1  0.31820688  0.58079522  0.82880890  1
  C  C349  1  0.37091401  0.66132620  0.10968096  1
  C  C350  1  0.35415155  0.63842650  0.00003414  1
  O  O351  1  0.25587833  0.55833987  0.36813855  1
  C  C352  1  0.31018609  0.63427991  0.58950902  1
  C  C353  1  0.30323228  0.59920542  0.50590217  1
  C  C354  1  0.28032088  0.56890386  0.07828012  1
  C  C355  1  0.32722654  0.71928034  0.73505761  1
  C  C356  1  0.29402004  0.54377834  0.77049703  1
  C  C357  1  0.44343411  0.71092447  0.93355250  1
  H  H358  1  0.35112328  0.70584659  0.67059842  1
  C  C359  1  0.28827958  0.51496458  0.34174053  1
  C  C360  1  0.26570732  0.59036858  0.44058506  1
  H  H361  1  0.30851388  0.58846000  0.08837189  1
  H  H362  1  0.31507404  0.53913505  0.34659185  1
  H  H363  1  0.26185917  0.73632011  0.11079856  1
  C  C364  1  0.26538754  0.74926122  0.88242554  1
  H  H365  1  0.25091254  0.59867085  0.73114502  1
  H  H366  1  0.25794473  0.50396175  0.00029099  1
  C  C367  1  0.38107976  0.50069335  0.56726949  1
  C  C368  1  0.28873192  0.82533380  0.69260169  1
  H  H369  1  0.38520404  0.83744933  0.47336238  1
  C  C370  1  0.28926469  0.80033935  0.58883201  1
  O  O371  1  0.38372915  0.90453277  0.84787985  1
  H  H372  1  0.38573299  0.88452131  0.65343022  1
  H  H373  1  0.27286455  0.83735254  0.14793901  1
  C  C374  1  0.32105610  0.86090656  0.71062525  1
  C  C375  1  0.35702382  0.96834196  0.06215132  1
  C  C376  1  0.36030331  0.83345893  0.54079238  1
  H  H377  1  0.45180932  0.83240279  0.96200506  1
  C  C378  1  0.27122521  0.90243011  0.82260821  1
  C  C379  1  0.40182538  0.79751283  0.87814962  1
  C  C380  1  0.31313128  0.89362902  0.80623785  1
  C  C381  1  0.46381826  0.93087587  0.87122133  1
  C  C382  1  0.28833491  0.94943891  0.99087327  1
  C  C383  1  0.38385958  0.93525662  0.12504025  1
  C  C384  1  0.37164343  0.88895154  0.11978444  1
  C  C385  1  0.41989881  0.92548253  0.92329528  1
  H  H386  1  0.38534146  0.83187057  0.86241303  1
  C  C387  1  0.43384279  0.85757908  0.21955886  1
  H  H388  1  0.27903883  0.96828085  0.07169569  1
  O  O389  1  0.45256883  0.82505042  0.28008105  1
  H  H390  1  0.47557388  0.90074316  0.81791568  1
  H  H391  1  0.34511510  0.87759607  0.07092227  1
  H  H392  1  0.32619614  0.83946092  0.23594291  1
  H  H393  1  0.40562522  0.94650418  0.18715192  1
  C  C394  1  0.35994557  0.82888488  0.25984374  1
  H  H395  1  0.46334175  0.96273305  0.81638576  1
  H  H396  1  0.40656073  0.96164685  0.94437727  1
  C  C397  1  0.32246853  0.78151461  0.39812103  1
  C  C398  1  0.32969387  0.94423521  0.97000628  1
  C  C399  1  0.34554502  0.91482521  0.87633100  1
  H  H400  1  0.42095125  0.90380448  0.00148749  1
  C  C401  1  0.39044762  0.85608698  0.20560990  1
  C  C402  1  0.35937132  0.86220956  0.63827382  1
  O  O403  1  0.45640820  0.88564584  0.16230691  1
  O  O404  1  0.31919741  0.77610856  0.01555787  1
  O  O405  1  0.36387873  0.79382571  0.32465996  1
  C  C406  1  0.32453593  0.80672731  0.51072182  1
  C  C407  1  0.43991294  0.79799494  0.93550562  1
  H  H408  1  0.26639817  0.81636024  0.76363626  1
  H  H409  1  0.48635285  0.93711784  0.94464096  1
  H  H410  1  0.25228029  0.89162781  0.75066790  1
  C  C411  1  0.25786262  0.92854171  0.91929058  1
  H  H412  1  0.26535259  0.77409819  0.57622002  1
  C  C413  1  0.30818479  0.75626794  0.92110245  1
  C  C414  1  0.38284385  0.75208888  0.86252634  1
  C  C415  1  0.49667275  0.75379336  0.04076250  1
  C  C416  1  0.46057139  0.75622268  0.96496033  1
  Cu  Cu417  1  0.37134157  0.75982862  0.07592938  1
  O  O418  1  0.29515762  0.75955126  0.36026626  1
  H  H419  1  0.66056930  0.19608872  0.27898349  1
  C  C420  1  0.64551133  0.22207149  0.21579456  1
  H  H421  1  0.62953627  0.20290520  0.14497102  1
  H  H422  1  0.62183984  0.24443519  0.26412672  1
  H  H423  1  0.70160127  0.23862968  0.12025998  1
  C  C424  1  0.68803645  0.33504991  0.08423266  1
  C  C425  1  0.67796696  0.37547870  0.01029068  1
  C  C426  1  0.59448052  0.42099128  0.80910380  1
  O  O427  1  0.51625970  0.43462610  0.25116264  1
  O  O428  1  0.69461230  0.31838957  0.66454402  1
  H  H429  1  0.69531857  0.27265537  0.23984200  1
  H  H430  1  0.66145706  0.42597071  0.81308175  1
  Cu  Cu431  1  0.51234634  0.42472285  0.56168148  1
  H  H432  1  0.60555929  0.33919347  0.08288095  1
  H  H433  1  0.68243286  0.30895045  0.73700164  1
  O  O434  1  0.50715285  0.39897422  0.41639225  1
  H  H435  1  0.59412781  0.44134961  0.73164131  1
  O  O436  1  0.59164968  0.48687412  0.49834395  1
  C  C437  1  0.70484462  0.41224753  0.97580707  1
  C  C438  1  0.56179241  0.37210406  0.95825513  1
  H  H439  1  0.69290248  0.44233927  0.92438986  1
  H  H440  1  0.71166906  0.36624616  0.49814687  1
  C  C441  1  0.63756683  0.37818729  0.94840686  1
  C  C442  1  0.60070847  0.36021274  0.00010185  1
  C  C443  1  0.73664436  0.33161955  0.69774142  1
  C  C444  1  0.74450051  0.36847768  0.50284403  1
  O  O445  1  0.66089668  0.30161952  0.10193701  1
  C  C446  1  0.63387791  0.40899027  0.84982909  1
  C  C447  1  0.55922464  0.40140340  0.85992597  1
  H  H448  1  0.53476268  0.35679091  0.00129740  1
  O  O449  1  0.51796325  0.44306259  0.71413234  1
  C  C450  1  0.51769685  0.41598897  0.80746853  1
  Cu  Cu451  1  0.56639716  0.46211825  0.28525990  1
  C  C452  1  0.73233102  0.33612703  0.09403766  1
  H  H453  1  0.72023521  0.49994764  0.00282193  1
  O  O454  1  0.61601436  0.48315046  0.32108840  1
  C  C455  1  0.74662096  0.41201234  0.00725244  1
  H  H456  1  0.74156857  0.26860691  0.93889438  1
  C  C457  1  0.61992580  0.49793727  0.42593624  1
  C  C458  1  0.67716735  0.25879249  0.17052896  1
  C  C459  1  0.72417707  0.73887493  0.86929832  1
  H  H460  1  0.70709987  0.64710057  0.74367031  1
  Cu  Cu461  1  0.55774192  0.68231972  0.01184964  1
  C  C462  1  0.68530891  0.53961505  0.39227348  1
  H  H463  1  0.69046350  0.52158713  0.30852925  1
  C  C464  1  0.71048258  0.64913622  0.00058289  1
  C  C465  1  0.71066449  0.59865782  0.53893379  1
  C  C466  1  0.65129477  0.53034930  0.46767849  1
  H  H467  1  0.67315979  0.59660557  0.70567963  1
  H  H468  1  0.63559566  0.58376980  0.86714758  1
  C  C469  1  0.64756283  0.55211506  0.57891154  1
  C  C470  1  0.70037395  0.56367611  0.87923647  1
  C  C471  1  0.67232678  0.63718800  0.95109563  1
  C  C472  1  0.71216641  0.57445985  0.42847500  1
  C  C473  1  0.63729591  0.66880627  0.97445749  1
  H  H474  1  0.70959823  0.71539130  0.41242437  1
  H  H475  1  0.62111946  0.54327228  0.63504810  1
  Cu  Cu476  1  0.60217826  0.71643158  0.16015775  1
  C  C477  1  0.73727912  0.57396678  0.93775788  1
  H  H478  1  0.71323143  0.68372235  0.04410468  1
  C  C479  1  0.66655596  0.59439811  0.89416128  1
  H  H480  1  0.73888062  0.57931760  0.37109169  1
  O  O481  1  0.64119706  0.70124891  0.04664143  1
  C  C482  1  0.67650412  0.58384829  0.61266958  1
  C  C483  1  0.73514493  0.65237125  0.69035742  1
  O  O484  1  0.60156195  0.65667504  0.93846076  1
  H  H485  1  0.69842057  0.53192349  0.82656521  1
  H  H486  1  0.63257176  0.69927715  0.37529064  1
  C  C487  1  0.64573903  0.73453989  0.38654181  1
  C  C488  1  0.74164009  0.63283167  0.58252646  1
  O  O489  1  0.50907666  0.71148305  0.06415285  1
  O  O490  1  0.52335484  0.56481418  0.15365969  1
  C  C491  1  0.74386658  0.61823445  0.99772113  1
  C  C492  1  0.52487035  0.58229738  0.07165762  1
  O  O493  1  0.57282147  0.72820936  0.29392378  1
  C  C494  1  0.68623924  0.74429127  0.41199266  1
  H  H495  1  0.70199927  0.74307771  0.79814050  1
  Cu  Cu496  1  0.53643285  0.50375754  0.47015502  1
  O  O497  1  0.57972140  0.92927129  0.97756490  1
  C  C498  1  0.58904875  0.89893478  0.04447981  1
  H  H499  1  0.61001418  0.84938091  0.43805262  1
  C  C500  1  0.72553596  0.76735914  0.97221298  1
  C  C501  1  0.67356734  0.80650282  0.09730900  1
  H  H502  1  0.68561663  0.86181267  0.48727953  1
  C  C503  1  0.62713179  0.86959629  0.02852970  1
  C  C504  1  0.63249586  0.82034291  0.43329279  1
  H  H505  1  0.72193174  0.91053382  0.21892287  1
  H  H506  1  0.62055457  0.83724580  0.19325842  1
  C  C507  1  0.69364859  0.80726131  0.98770177  1
  H  H508  1  0.69858542  0.84476150  0.82103514  1
  O  O509  1  0.57065521  0.89017982  0.14528505  1
  H  H510  1  0.68489555  0.77924382  0.16176095  1
  C  C511  1  0.70234403  0.79041329  0.44523518  1
  O  O512  1  0.74150777  0.90625012  0.72842620  1
  O  O513  1  0.55436604  0.80308288  0.32840014  1
  O  O514  1  0.51058158  0.79026507  0.08841563  1
  C  C515  1  0.64889506  0.87345483  0.92359047  1
  C  C516  1  0.64012050  0.83707088  0.11483853  1
  H  H517  1  0.64099746  0.89964340  0.85520141  1
  C  C518  1  0.61985968  0.77590436  0.38869786  1
  C  C519  1  0.68220885  0.84186985  0.90622387  1
  Cu  Cu520  1  0.51154640  0.88762495  0.16015117  1
  C  C521  1  0.67322344  0.82724339  0.45906922  1
  Cu  Cu522  1  0.50343640  0.80639045  0.25198235  1
  C  C523  1  0.74776547  0.80345167  0.46456153  1
  C  C524  1  0.57934364  0.76962584  0.34050577  1
  O  O525  1  0.73712404  0.88323509  0.36930659  1
  C  C526  1  0.71796484  0.89831789  0.66764476  1
  Cu  Cu527  1  0.82474050  0.14332279  0.38976944  1
  H  H528  1  0.84345520  0.12260511  0.72892011  1
  H  H529  1  0.82268208  0.24670580  0.31885239  1
  C  C530  1  0.96497775  0.08488951  0.25070014  1
  O  O531  1  0.82827605  0.20210558  0.45668011  1
  O  O532  1  0.84708198  0.16510731  0.25315259  1
  C  C533  1  0.96945303  0.12751432  0.31324509  1
  H  H534  1  0.95452800  0.04549213  0.08533916  1
  H  H535  1  0.98776855  0.01569218  0.93711111  1
  H  H536  1  0.97407905  0.03849454  0.67620348  1
  C  C537  1  0.78131281  0.21864165  0.03939708  1
  C  C538  1  0.83703510  0.04793254  0.30305048  1
  H  H539  1  0.93066471  0.05312998  0.86086545  1
  C  C540  1  0.94993706  0.13370027  0.82841653  1
  H  H541  1  0.94821157  0.06632600  0.48858171  1
  H  H542  1  0.86379472  0.05314246  0.60895887  1
  H  H543  1  0.78616344  0.22258703  0.78619908  1
  O  O544  1  0.87959055  0.05181694  0.98269502  1
  H  H545  1  0.78720868  0.19094222  0.97416064  1
  H  H546  1  0.89414507  0.09268124  0.50850698  1
  C  C547  1  0.80923905  0.21040431  0.56160954  1
  C  C548  1  0.87318730  0.08974395  0.58546034  1
  C  C549  1  0.95986317  0.16926719  0.11802395  1
  C  C550  1  0.95094680  0.03441287  0.43465229  1
  C  C551  1  0.95011997  0.17251231  0.89987048  1
  C  C552  1  0.83190426  0.24135501  0.64611178  1
  C  C553  1  0.96627543  0.16889274  0.24448668  1
  C  C554  1  0.88154943  0.00959935  0.80757415  1
  O  O555  1  0.95515656  0.19971391  0.04111886  1
  C  C556  1  0.95984931  0.03714580  0.31246017  1
  C  C557  1  0.95904275  0.08054662  0.12994831  1
  H  H558  1  0.94776817  0.20818138  0.85406623  1
  O  O559  1  0.82304930  0.13774344  0.08665289  1
  H  H560  1  0.87640037  0.16208984  0.63368398  1
  C  C561  1  0.82768956  0.17066181  0.15981813  1
  H  H562  1  0.97154588  0.12882337  0.41469315  1
  O  O563  1  0.86531917  0.05133336  0.22845440  1
  C  C564  1  0.86233047  0.12709431  0.64854198  1
  C  C565  1  0.92042198  0.03234327  0.78571447  1
  C  C566  1  0.95435647  0.12062260  0.94228924  1
  C  C567  1  0.85914421  0.02215581  0.91708389  1
  H  H568  1  0.78493113  0.02167370  0.48986529  1
  Cu  Cu569  1  0.86524160  0.08991559  0.10011113  1
  C  C570  1  0.95715738  0.12247937  0.06547891  1
  C  C571  1  0.80438559  0.21537590  0.14367312  1
  C  C572  1  0.95970996  0.21265755  0.31319475  1
  O  O573  1  0.81325968  0.08326972  0.32784481  1
  H  H574  1  0.94555818  0.12430887  0.73234617  1
  O  O575  1  0.77931347  0.18726289  0.58088427  1
  C  C576  1  0.94251588  0.02463266  0.68793146  1
  C  C577  1  0.98074898  0.22129940  0.41699462  1
  C  C578  1  0.93186793  0.24948700  0.27282067  1
  H  H579  1  0.91306937  0.24468580  0.19533624  1
  C  C580  1  0.81733307  0.23939994  0.76253071  1
  C  C581  1  0.80421815  0.24788271  0.23670513  1
  C  C582  1  0.83237812  0.00132167  0.35516321  1
  O  O583  1  0.83018165  0.00127437  0.95210989  1
  H  H584  1  0.83923642  0.33819929  0.28314336  1
  C  C585  1  0.84422641  0.37599421  0.26004858  1
  C  C586  1  0.87207428  0.38787391  0.17197165  1
  C  C587  1  0.96000302  0.32208165  0.02173402  1
  C  C588  1  0.93950747  0.34895014  0.10479254  1
  C  C589  1  0.89583522  0.35193780  0.09349542  1
  C  C590  1  0.92679276  0.29188243  0.33039573  1
  Cu  Cu591  1  0.99117006  0.40537149  0.61687365  1
  H  H592  1  0.84610925  0.33956663  0.97907016  1
  C  C593  1  0.87876420  0.33382951  0.99232268  1
  H  H594  1  0.83466566  0.42313703  0.96753251  1
  C  C595  1  0.77507314  0.28403996  0.22498793  1
  C  C596  1  0.83753348  0.26513646  0.84797505  1
  H  H597  1  0.91292374  0.43804738  0.09487609  1
  C  C598  1  0.86946386  0.26449444  0.61320551  1
  C  C599  1  0.81212947  0.49053674  0.51806162  1
  H  H600  1  0.86419297  0.37889794  0.53775747  1
  C  C601  1  0.77471937  0.45460134  0.97613800  1
  H  H602  1  0.75452260  0.39400736  0.32740426  1
  O  O603  1  0.97269256  0.34416742  0.58679865  1
  C  C604  1  0.83088981  0.37661886  0.53559920  1
  O  O605  1  0.93262827  0.37798501  0.45153553  1
  C  C606  1  0.76155996  0.37198340  0.07177684  1
  H  H607  1  0.83050620  0.46019781  0.54652570  1
  C  C608  1  0.94936259  0.29879849  0.43338346  1
  C  C609  1  0.84885717  0.46290243  0.33098608  1
  C  C610  1  0.94803108  0.34395017  0.49352376  1
  C  C611  1  0.92888339  0.46912410  0.70455036  1
  O  O612  1  0.96371127  0.27351176  0.83964208  1
  C  C613  1  0.76717856  0.38555033  0.41160056  1
  C  C614  1  0.89199104  0.28541012  0.69786686  1
  C  C615  1  0.81075465  0.39017545  0.43229714  1
  H  H616  1  0.93281137  0.45691136  0.61761374  1
  H  H617  1  0.90717867  0.32184565  0.29802761  1
  C  C618  1  0.88745508  0.43410759  0.15563785  1
  C  C619  1  0.88848951  0.47245568  0.75015211  1
  H  H620  1  0.79627617  0.36786377  0.10430089  1
  C  C621  1  0.75706049  0.25778196  0.02244030  1
  C  C622  1  0.90135189  0.30695490  0.91394971  1
  C  C623  1  0.87628207  0.46871332  0.23516455  1
  C  C624  1  0.81852840  0.45803067  0.95651873  1
  H  H625  1  0.92053751  0.30593265  0.67679375  1
  H  H626  1  0.95606687  0.36384556  0.18355261  1
  C  C627  1  0.87650992  0.28604264  0.81835709  1
  C  C628  1  0.83733591  0.41452358  0.33803868  1
  C  C629  1  0.94493817  0.29883180  0.91997950  1
  H  H630  1  0.86115729  0.46119508  0.69871283  1
  H  H631  1  0.76841074  0.30871722  0.29627333  1
  H  H632  1  0.96104103  0.46225094  0.21752341  1
  H  H633  1  0.81821473  0.34358861  0.71163311  1
  C  C634  1  0.75287347  0.28900324  0.11988431  1
  H  H635  1  0.82489573  0.26463638  0.93412859  1
  O  O636  1  0.84113557  0.49840990  0.40624402  1
  H  H637  1  0.78461092  0.47814463  0.47181300  1
  C  C638  1  0.97503826  0.26224292  0.47861727  1
  C  C639  1  0.76324477  0.35262163  0.60516847  1
  C  C640  1  0.80613686  0.35956048  0.62942118  1
  H  H641  1  0.99446451  0.25270942  0.17493507  1
  C  C642  1  0.96374144  0.48620685  0.76517686  1
  H  H643  1  0.98854392  0.26899418  0.56548303  1
  C  C644  1  0.83770784  0.49989732  0.91595430  1
  C  C645  1  0.88239619  0.49159874  0.86440896  1
  O  O646  1  0.75000033  0.31813644  0.78926886  1
  C  C647  1  0.75250114  0.49873746  0.96707470  1
  C  C648  1  0.94959751  0.49902613  0.20117643  1
  H  H649  1  0.88143381  0.26600355  0.52217536  1
  H  H650  1  0.90902714  0.62395585  0.10631772  1
  C  C651  1  0.84973071  0.67717463  0.51381714  1
  O  O652  1  0.97823275  0.64663936  0.02946913  1
  H  H653  1  0.88074341  0.55849149  0.77976254  1
  C  C654  1  0.77665184  0.64149683  0.50828847  1
  C  C655  1  0.96022350  0.57580465  0.12585641  1
  C  C656  1  0.92378707  0.69525320  0.39749158  1
  H  H657  1  0.78293971  0.55575848  0.56951450  1
  H  H658  1  0.77972238  0.50943474  0.68135276  1
  O  O659  1  0.82963355  0.58523755  0.85676192  1
  C  C660  1  0.76558313  0.68305385  0.73695087  1
  C  C661  1  0.85880972  0.65088536  0.41036545  1
  C  C662  1  0.88787976  0.63592003  0.75807487  1
  C  C663  1  0.79998990  0.52660509  0.61371612  1
  C  C664  1  0.89082318  0.55702120  0.18845708  1
  H  H665  1  0.90577644  0.63463172  0.29240492  1
  H  H666  1  0.91750388  0.63293341  0.70225687  1
  C  C667  1  0.97723648  0.53084697  0.15944940  1
  C  C668  1  0.81627350  0.54327941  0.89466365  1
  H  H669  1  0.83834679  0.62108415  0.38687827  1
  C  C670  1  0.77306699  0.53898883  0.92663710  1
  Cu  Cu671  1  0.98870603  0.70701963  0.09951839  1
  H  H672  1  0.77340408  0.62863644  0.03073151  1
  C  C673  1  0.89614484  0.65709773  0.36305478  1
  H  H674  1  0.86475376  0.64361063  0.69073838  1
  C  C675  1  0.87520430  0.59158022  0.82836966  1
  H  H676  1  0.89351351  0.66619219  0.81476905  1
  C  C677  1  0.91921879  0.58886491  0.13809296  1
  C  C678  1  0.80980275  0.66899351  0.56774597  1
  C  C679  1  0.95872240  0.70606578  0.32488311  1
  H  H680  1  0.88945821  0.58986921  0.91581636  1
  C  C681  1  0.91686791  0.71979725  0.50556133  1
  H  H682  1  0.82721647  0.54351739  0.65662720  1
  O  O683  1  0.77998774  0.62575641  0.40835642  1
  C  C684  1  0.84244989  0.70301893  0.17607454  1
  H  H685  1  0.85715798  0.56242780  0.18212918  1
  O  O686  1  0.96205037  0.68301099  0.23004334  1
  O  O687  1  0.86062678  0.67640457  0.11166912  1
  C  C688  1  0.80295385  0.68844221  0.67823811  1
  H  H689  1  0.82849059  0.70858286  0.72123098  1
  C  C690  1  0.79144585  0.70320275  0.93080170  1
  C  C691  1  0.87991999  0.70894385  0.56331152  1
  H  H692  1  0.81708542  0.68029684  0.91142541  1
  H  H693  1  0.87599497  0.72769526  0.64321775  1
  H  H694  1  0.98394286  0.51672466  0.93256068  1
  C  C695  1  0.75902362  0.70956888  0.85129372  1
  C  C696  1  0.78674426  0.72792862  0.04157644  1
  C  C697  1  0.80704006  0.73244062  0.15921150  1
  H  H698  1  0.85883884  0.70958073  0.25778778  1
  H  H699  1  0.91331177  0.51634569  0.02570659  1
  C  C700  1  0.90529675  0.51051557  0.21024447  1
  C  C701  1  0.91752649  0.50456021  0.93153120  1
  H  H702  1  0.99513422  0.57677381  0.30963174  1
  O  O703  1  0.98587317  0.73691235  0.34946034  1
  C  C704  1  0.95726278  0.50305780  0.88307442  1
  C  C705  1  0.99112797  0.60760295  0.06719906  1
  H  H706  1  0.97530180  0.60349450  0.44845021  1
  H  H707  1  0.76003149  0.73134373  0.56316334  1
  H  H708  1  0.94114864  0.74242328  0.54531304  1
  H  H709  1  0.97467928  0.87226689  0.56786151  1
  H  H710  1  0.77264289  0.93938741  0.54625531  1
  O  O711  1  0.89172631  0.77369961  0.96124561  1
  C  C712  1  0.94333518  0.89073924  0.58274263  1
  C  C713  1  0.94142635  0.86521467  0.20782059  1
  C  C714  1  0.78929697  0.82072974  0.75502324  1
  C  C715  1  0.86450698  0.97990340  0.72799038  1
  H  H716  1  0.87766354  0.91425267  0.94724576  1
  C  C717  1  0.81959346  0.90837569  0.43292817  1
  C  C718  1  0.90538464  0.85037740  0.03332009  1
  C  C719  1  0.77158312  0.76598342  0.52664285  1
  C  C720  1  0.94547345  0.95075207  0.29654550  1
  C  C721  1  0.89557089  0.90019692  0.02404266  1
  C  C722  1  0.82812980  0.80137289  0.82440314  1
  C  C723  1  0.92901777  0.83047721  0.13142365  1
  H  H724  1  0.76851593  0.83846989  0.81891986  1
  H  H725  1  0.87962690  0.97105485  0.24282125  1
  C  C726  1  0.88420925  0.81479698  0.95958808  1
  C  C727  1  0.79503942  0.94750314  0.47346430  1
  C  C728  1  0.80892469  0.78543147  0.53796113  1
  H  H729  1  0.94941569  0.92397036  0.62988833  1
  H  H730  1  0.86383188  0.82968219  0.52662730  1
  C  C731  1  0.83176365  0.82440422  0.50745184  1
  O  O732  1  0.85066278  0.83571421  0.88336781  1
  C  C733  1  0.75230309  0.90739976  0.26773547  1
  C  C734  1  0.91327861  0.93245017  0.10320202  1
  C  C735  1  0.85299988  0.91983544  0.35738602  1
  C  C736  1  0.94116751  0.94329395  0.42102241  1
  H  H737  1  0.85068146  0.78499875  0.76351861  1
  H  H738  1  0.93307673  0.79217624  0.14620490  1
  C  C739  1  0.76234119  0.84678794  0.43141412  1
  C  C740  1  0.93510159  0.91520803  0.20417789  1
  H  H741  1  0.87302755  0.89202989  0.31781755  1
  H  H742  1  0.90563936  0.97098947  0.09956631  1
  C  C743  1  0.80330707  0.85959237  0.46042557  1
  O  O744  1  0.93401191  0.89961211  0.46115287  1
  C  C745  1  0.91659604  0.85907993  0.66514699  1
  H  H746  1  0.91531702  0.82351051  0.62713061  1
  H  H747  1  0.95836073  0.85235440  0.28955939  1
  C  C748  1  0.95487225  0.99554017  0.24638118  1
  H  H749  1  0.93206222  0.85568373  0.75109386  1
  H  H750  1  0.80974044  0.87047562  0.24831966  1
  H  H751  1  0.88445661  0.87256267  0.68265813  1
  C  C752  1  0.88728169  0.97268002  0.62534166  1
  H  H753  1  0.83616383  0.96240869  0.74154370  1
  H  H754  1  0.81965464  0.77404027  0.88966693  1
  C  C755  1  0.80207965  0.99360093  0.44547782  1
  H  H756  1  0.79433303  0.84491612  0.67803481  1
  O  O757  1  0.75506358  0.78215676  0.17836592  1
  H  H758  1  0.80274497  0.91245795  0.13812038  1
  C  C759  1  0.85784717  0.96566465  0.31169293  1
  H  H760  1  0.87454916  0.94881070  0.55750914  1
  C  C761  1  0.94324991  0.98773625  0.47676257  1
  H  H762  1  0.95437678  0.99717237  0.15253818  1
  H  H763  1  0.98822469  0.93513182  0.94041961  1
  C  C764  1  0.75416932  0.75989564  0.06535322  1
  C  C765  1  0.92640885  0.99490866  0.60227878  1
  H  H766  1  0.76021074  0.94502610  0.29596480  1
  C  C767  1  0.78667922  0.88556589  0.18949353  1
  H  H768  1  0.76821143  0.79102778  0.72994477  1
  H  H769  1  0.99954203  0.96110200  0.77554429  1
  H  H770  1  0.98993415  0.94900736  0.09916869  1
  H  H771  1  0.77879232  0.85864911  0.11930175  1
  H  H772  1  0.79876815  0.77076289  0.31749452  1
  C  C773  1  0.78600548  0.76209443  0.23155810  1
