# generated using pymatgen
data_CuH15C22O5
_symmetry_space_group_name_H-M   'P 1'
_cell_length_a   31.19604301
_cell_length_b   25.53662639
_cell_length_c   11.62183265
_cell_angle_alpha   90.00000000
_cell_angle_beta   90.00000000
_cell_angle_gamma   90.00000000
_symmetry_Int_Tables_number   1
_chemical_formula_structural   CuH15C22O5
_chemical_formula_sum   'Cu18 H270 C396 O90'
_cell_volume   9258.43646825
_cell_formula_units_Z   18
loop_
 _symmetry_equiv_pos_site_id
 _symmetry_equiv_pos_as_xyz
  1  'x, y, z'
loop_
 _atom_site_type_symbol
 _atom_site_label
 _atom_site_symmetry_multiplicity
 _atom_site_fract_x
 _atom_site_fract_y
 _atom_site_fract_z
 _atom_site_occupancy
  H  H0  1  0.09198342  0.14512657  0.28971425  1
  C  C1  1  0.12278947  0.16144726  0.25775715  1
  C  C2  1  0.13978023  0.16427393  0.14117918  1
  C  C3  1  0.15241362  0.17648781  0.34373759  1
  C  C4  1  0.22514108  0.08052218  0.32414343  1
  H  H5  1  0.14548079  0.08245816  0.09162970  1
  C  C6  1  0.17731273  0.19149133  0.10961219  1
  C  C7  1  0.18985453  0.20297220  0.31082645  1
  C  C8  1  0.10452527  0.05083245  0.36945233  1
  H  H9  1  0.14394952  0.17076708  0.43863335  1
  C  C10  1  0.16218429  0.49394269  0.00869699  1
  H  H11  1  0.19379204  0.08102902  0.27583165  1
  O  O12  1  0.03065366  0.10040700  0.37174073  1
  C  C13  1  0.20324085  0.21120847  0.19746412  1
  H  H14  1  0.08116889  0.22542413  0.13201689  1
  O  O15  1  0.09771148  0.23910733  0.48711585  1
  C  C16  1  0.21693776  0.23052250  0.40331827  1
  H  H17  1  0.22350814  0.10221652  0.41010578  1
  O  O18  1  0.10048761  0.49919132  0.31308321  1
  H  H19  1  0.02997598  0.20740129  0.44333418  1
  O  O20  1  0.10664942  0.31471916  0.08555653  1
  C  C21  1  0.11089441  0.16158879  0.03461370  1
  C  C22  1  0.04589939  0.09638565  0.46281789  1
  O  O23  1  0.24723679  0.25342368  0.36994813  1
  O  O24  1  0.14022531  0.03560789  0.35702019  1
  C  C25  1  0.17347007  0.07782940  0.02839701  1
  H  H26  1  0.08319990  0.04804040  0.28737281  1
  C  C27  1  0.08060406  0.20048619  0.05410779  1
  H  H28  1  0.18239438  0.19624245  0.01539857  1
  C  C29  1  0.08616271  0.07133471  0.47693221  1
  C  C30  1  0.12690641  0.34015730  0.15294041  1
  H  H31  1  0.23335740  0.22929954  0.18105484  1
  H  H32  1  0.18556467  0.41652413  0.24653457  1
  H  H33  1  0.23188013  0.03756106  0.34605342  1
  O  O34  1  0.13910576  0.32408177  0.25152062  1
  C  C35  1  0.14215463  0.39391625  0.10847142  1
  C  C36  1  0.16950303  0.42861598  0.16580461  1
  C  C37  1  0.04283515  0.34817052  0.38396954  1
  Cu  Cu38  1  0.11444593  0.28014581  0.36692097  1
  C  C39  1  0.18214458  0.47563239  0.11153610  1
  O  O40  1  0.06596462  0.37830579  0.44927814  1
  H  H41  1  0.01370765  0.44509966  0.43431519  1
  H  H42  1  0.19009716  0.47671301  0.39085392  1
  O  O43  1  0.05513915  0.30419937  0.34965297  1
  C  C44  1  0.00560305  0.37353633  0.33464112  1
  Cu  Cu45  1  0.08710435  0.43800575  0.38736959  1
  H  H46  1  0.18846409  0.00617542  0.13138053  1
  H  H47  1  0.23473348  0.03909046  0.07482951  1
  C  C48  1  0.20029586  0.02868997  0.05722653  1
  H  H49  1  0.19192047  0.11436413  0.02912815  1
  C  C50  1  0.07823514  0.11921753  0.72657446  1
  C  C51  1  0.04020419  0.12798657  0.66134133  1
  H  H52  1  0.14055198  0.07735473  0.73813108  1
  C  C53  1  0.08570179  0.14233253  0.84287959  1
  C  C54  1  0.05584638  0.18317988  0.85728256  1
  C  C55  1  0.11245297  0.08819264  0.68341652  1
  O  O56  1  0.21172102  0.12564141  0.72765162  1
  C  C57  1  0.22023684  0.16420210  0.77874554  1
  O  O58  1  0.20661422  0.21225042  0.74189864  1
  C  C59  1  0.11667358  0.12946195  0.93156521  1
  O  O60  1  0.14629868  0.09298623  0.91931374  1
  H  H61  1  0.03293827  0.19299379  0.78201342  1
  H  H62  1  0.01206391  0.15135974  0.71054152  1
  Cu  Cu63  1  0.15680925  0.23838084  0.70515133  1
  C  C64  1  0.11187632  0.06862170  0.57639552  1
  C  C65  1  0.12979534  0.49076233  0.55750700  1
  O  O66  1  0.02081520  0.12227423  0.56997865  1
  C  C67  1  0.08308925  0.25258922  0.58484894  1
  C  C68  1  0.01654131  0.27921326  0.69434112  1
  C  C69  1  0.05395196  0.21255165  0.95971209  1
  C  C70  1  0.01596581  0.30289257  0.96830108  1
  C  C71  1  0.03515477  0.25241676  0.59629346  1
  O  O72  1  0.20260128  0.23011070  0.50880334  1
  H  H73  1  0.14126209  0.04682543  0.55028641  1
  C  C74  1  0.12819277  0.40837199  0.99930462  1
  C  C75  1  0.00052060  0.49027340  0.84349348  1
  H  H76  1  0.11587766  0.46956645  0.87425669  1
  C  C77  1  0.03383175  0.45337074  0.82725408  1
  C  C78  1  0.02531190  0.40280761  0.85905820  1
  H  H79  1  0.10941101  0.37993497  0.94800876  1
  C  C80  1  0.13655940  0.45738124  0.94639155  1
  Cu  Cu81  1  0.23545301  0.25384427  0.62222146  1
  H  H82  1  0.04649444  0.32361251  0.94792809  1
  O  O83  1  0.10441651  0.27112945  0.66508298  1
  H  H84  1  0.06225613  0.46488302  0.77785822  1
  H  H85  1  0.03635218  0.29253164  0.76648226  1
  H  H86  1  0.04788118  0.37284024  0.83398622  1
  H  H87  1  0.23953812  0.24946041  0.91195866  1
  C  C88  1  0.01527690  0.24878034  0.98717243  1
  H  H89  1  0.20036102  0.00425766  0.97817293  1
  C  C90  1  0.24935943  0.16352413  0.88428542  1
  C  C91  1  0.01123675  0.22701177  0.51382897  1
  O  O92  1  0.12557055  0.44761991  0.50040225  1
  C  C93  1  0.11150678  0.63545653  0.37259312  1
  C  C94  1  0.11919182  0.58577306  0.32645504  1
  C  C95  1  0.15063249  0.58317568  0.23867164  1
  C  C96  1  0.13601383  0.67885984  0.34690242  1
  C  C97  1  0.17287043  0.62558763  0.19235802  1
  C  C98  1  0.16498280  0.67404373  0.25160719  1
  C  C99  1  0.18557388  0.71984656  0.19146690  1
  H  H100  1  0.15430419  0.54499343  0.20339555  1
  C  C101  1  0.09135632  0.54265170  0.36083640  1
  H  H102  1  0.19913810  0.61978556  0.12750407  1
  H  H103  1  0.13028859  0.71482743  0.39874598  1
  C  C104  1  0.08952203  0.70261236  0.10162904  1
  H  H105  1  0.09087347  0.68410826  0.19120438  1
  C  C106  1  0.03510082  0.55970671  0.10226209  1
  C  C107  1  0.14783515  0.88030568  0.32171833  1
  C  C108  1  0.22758032  0.54575464  0.41965354  1
  O  O109  1  0.06094113  0.55055213  0.42757416  1
  H  H110  1  0.09032517  0.63988348  0.44660744  1
  C  C111  1  0.23102478  0.71687373  0.19882615  1
  O  O112  1  0.11650125  0.75085942  0.10063162  1
  H  H113  1  0.10005124  0.53437806  0.11983693  1
  C  C114  1  0.16062903  0.75422569  0.12210906  1
  H  H115  1  0.03025255  0.65846700  0.04702970  1
  C  C116  1  0.04300877  0.69983961  0.05327724  1
  Cu  Cu117  1  0.00860962  0.71150340  0.46781428  1
  H  H118  1  0.01300667  0.58065289  0.03406897  1
  O  O119  1  0.01153959  0.73027923  0.31042792  1
  C  C120  1  0.23107535  0.79432579  0.07501973  1
  C  C121  1  0.07820437  0.54468040  0.05136239  1
  H  H122  1  0.18178272  0.89605123  0.07006437  1
  H  H123  1  0.20182358  0.83483528  0.26457645  1
  C  C124  1  0.18903946  0.86155924  0.33236412  1
  H  H125  1  0.11141061  0.68117469  0.03919495  1
  H  H126  1  0.03911219  0.58503515  0.17879698  1
  O  O127  1  0.09221738  0.79875195  0.49277700  1
  O  O128  1  0.06391596  0.91070475  0.28666992  1
  O  O129  1  0.01324475  0.80844585  0.22393860  1
  Cu  Cu130  1  0.01482257  0.87598057  0.29801724  1
  C  C131  1  0.18666760  0.78853056  0.06520640  1
  H  H132  1  0.12773677  0.86875842  0.24650027  1
  C  C133  1  0.21132822  0.87344120  0.43555233  1
  H  H134  1  0.20128544  0.50450310  0.16798296  1
  H  H135  1  0.22170904  0.77907286  0.37809252  1
  O  O136  1  0.06056191  0.94719578  0.45738325  1
  H  H137  1  0.01871041  0.72257739  0.10284591  1
  C  C138  1  0.08341599  0.92753509  0.37984862  1
  C  C139  1  0.12673671  0.91170629  0.40448618  1
  H  H140  1  0.24775608  0.82682069  0.03442731  1
  H  H141  1  0.24724855  0.68530077  0.24353848  1
  C  C142  1  0.19536373  0.51047933  0.44776131  1
  H  H143  1  0.22702606  0.68462167  0.44705630  1
  H  H144  1  0.01886707  0.52255020  0.12672124  1
  H  H145  1  0.24930666  0.53941911  0.34594904  1
  C  C146  1  0.23381113  0.59111985  0.49254744  1
  C  C147  1  0.14018979  0.66472868  0.79011200  1
  C  C148  1  0.09341155  0.66593805  0.79093682  1
  C  C149  1  0.16220177  0.62617599  0.86515636  1
  C  C150  1  0.09654960  0.73384989  0.63751930  1
  C  C151  1  0.16239867  0.70032995  0.71574434  1
  C  C152  1  0.07407072  0.69863445  0.71156410  1
  H  H153  1  0.07195596  0.64504903  0.85179183  1
  H  H154  1  0.03858910  0.70010526  0.70550589  1
  C  C155  1  0.20760698  0.63327165  0.85900834  1
  C  C156  1  0.17221728  0.56957205  0.60677993  1
  H  H157  1  0.15101672  0.57916776  0.67544771  1
  C  C158  1  0.20587170  0.60373462  0.58593514  1
  H  H159  1  0.20304132  0.64187954  0.63433209  1
  Cu  Cu160  1  0.05873262  0.55397164  0.58971502  1
  H  H161  1  0.19906971  0.70100361  0.72434232  1
  C  C162  1  0.13892759  0.58968270  0.93882250  1
  H  H163  1  0.06441302  0.54040185  0.81370601  1
  O  O164  1  0.04955423  0.55898063  0.75284296  1
  C  C165  1  0.14093858  0.73365326  0.64072872  1
  H  H166  1  0.13071605  0.93844725  0.58019558  1
  C  C167  1  0.21463202  0.55080506  0.96136924  1
  H  H168  1  0.22192188  0.66861352  0.82154137  1
  O  O169  1  0.09928308  0.58918865  0.96971905  1
  C  C170  1  0.14172719  0.91242023  0.92345099  1
  C  C171  1  0.23408813  0.59622275  0.90972823  1
  H  H172  1  0.13762202  0.95533496  0.94237999  1
  C  C173  1  0.00424897  0.54450213  0.80900314  1
  C  C174  1  0.19056976  0.90090897  0.53051967  1
  C  C175  1  0.17001277  0.54938889  0.96688964  1
  C  C176  1  0.07434089  0.76717158  0.54828539  1
  C  C177  1  0.12254070  0.83687278  0.80451831  1
  H  H178  1  0.14020888  0.76108443  0.86962490  1
  Cu  Cu179  1  0.02876594  0.90832055  0.58138339  1
  H  H180  1  0.20475726  0.90214446  0.61555251  1
  H  H181  1  0.15851680  0.75775922  0.57823282  1
  C  C182  1  0.14874492  0.91851602  0.51287637  1
  O  O183  1  0.08460290  0.96866358  0.76358383  1
  C  C184  1  0.16701415  0.52387171  0.54094113  1
  O  O185  1  0.03248358  0.76069189  0.54522664  1
  O  O186  1  0.01636412  0.60651360  0.57875256  1
  C  C187  1  0.13986542  0.80286949  0.88679992  1
  C  C188  1  0.11916971  0.89149086  0.82925583  1
  O  O189  1  0.07417975  0.89878331  0.66366663  1
  H  H190  1  0.10880928  0.82006971  0.72428743  1
  C  C191  1  0.09148981  0.92284093  0.75065977  1
  O  O192  1  0.10012837  0.50392777  0.62325809  1
  H  H193  1  0.04410210  0.71522851  0.96326632  1
  H  H194  1  0.23116367  0.51378020  0.97105565  1
  H  H195  1  0.07794533  0.51162639  0.98737773  1
  C  C196  1  0.16364373  0.82469708  0.97900541  1
  C  C197  1  0.16373799  0.88007823  0.99702946  1
  C  C198  1  0.37758081  0.13660881  0.33043191  1
  C  C199  1  0.33899927  0.13650062  0.26534754  1
  O  O200  1  0.30643991  0.10981998  0.30748633  1
  C  C201  1  0.41367441  0.16340959  0.29725329  1
  H  H202  1  0.44683513  0.15825738  0.33180704  1
  C  C203  1  0.34028813  0.16527159  0.15990591  1
  C  C204  1  0.41145872  0.19977795  0.20362292  1
  C  C205  1  0.37518143  0.19727261  0.13360234  1
  O  O206  1  0.45507343  0.07967949  0.41613866  1
  C  C207  1  0.30686570  0.16479390  0.06583312  1
  H  H208  1  0.37252214  0.21894597  0.04712342  1
  C  C209  1  0.26264340  0.11066807  0.26385063  1
  C  C210  1  0.48701115  0.29523742  0.05777465  1
  O  O211  1  0.33386500  0.32721048  0.29624364  1
  C  C212  1  0.37957962  0.10468216  0.43878145  1
  H  H213  1  0.42000038  0.33519369  0.00918160  1
  C  C214  1  0.48353387  0.24213997  0.25835291  1
  O  O215  1  0.32400287  0.38487927  0.43759372  1
  C  C216  1  0.45041359  0.23442167  0.17800371  1
  C  C217  1  0.28621146  0.21353497  0.02360328  1
  H  H218  1  0.26672541  0.09765946  0.17541137  1
  C  C219  1  0.33633622  0.41645583  0.24776880  1
  H  H220  1  0.42541209  0.25954593  0.01103838  1
  C  C221  1  0.35000331  0.44133810  0.05361391  1
  H  H222  1  0.32269503  0.47624373  0.38143205  1
  C  C223  1  0.33039386  0.37102202  0.32906398  1
  C  C224  1  0.33832922  0.49347301  0.09194037  1
  H  H225  1  0.30814014  0.07905671  0.04942296  1
  H  H226  1  0.31450651  0.12577263  0.48608848  1
  C  C227  1  0.45110862  0.26416028  0.07742816  1
  H  H228  1  0.35339061  0.35684506  0.12000330  1
  C  C229  1  0.34790426  0.40007105  0.13404198  1
  C  C230  1  0.32897513  0.46662332  0.28969553  1
  H  H231  1  0.29819332  0.25056949  0.05950487  1
  H  H232  1  0.47950855  0.21913589  0.34050789  1
  C  C233  1  0.42163087  0.08277712  0.46849481  1
  C  C234  1  0.29611476  0.11626783  0.01598831  1
  H  H235  1  0.25281435  0.15277905  0.26343386  1
  C  C236  1  0.41034327  0.17294719  0.74503409  1
  C  C237  1  0.36540985  0.16112163  0.75663181  1
  H  H238  1  0.35390970  0.12099137  0.76790068  1
  H  H239  1  0.39430853  0.07907021  0.85666668  1
  C  C240  1  0.31216779  0.03521614  0.79078455  1
  C  C241  1  0.44214422  0.13054217  0.74817762  1
  C  C242  1  0.42536659  0.08429988  0.80860446  1
  H  H243  1  0.37595387  0.05103828  0.63001622  1
  C  C244  1  0.30998736  0.06033836  0.68407220  1
  C  C245  1  0.34465575  0.06706551  0.60947061  1
  C  C246  1  0.45567491  0.04783063  0.78263113  1
  C  C247  1  0.33573918  0.20087044  0.75667958  1
  H  H248  1  0.30176491  0.19087375  0.77889225  1
  H  H249  1  0.27868271  0.07631673  0.65691094  1
  C  C250  1  0.26572993  0.11576215  0.92371039  1
  C  C251  1  0.48503079  0.13435564  0.70373382  1
  Cu  Cu252  1  0.35280942  0.35996417  0.56125220  1
  C  C253  1  0.42106904  0.22789927  0.73337997  1
  H  H254  1  0.45500558  0.24011022  0.72892030  1
  C  C255  1  0.30582347  0.48141682  0.67726730  1
  H  H256  1  0.32393517  0.49730443  0.75635985  1
  C  C257  1  0.31513173  0.01005198  0.89553940  1
  O  O258  1  0.46292771  0.38648492  0.54197040  1
  C  C259  1  0.34270556  0.10008557  0.50766243  1
  H  H260  1  0.27709268  0.45884448  0.71311472  1
  H  H261  1  0.43041686  0.06303087  0.55551450  1
  C  C262  1  0.49469675  0.03754738  0.73793250  1
  C  C263  1  0.25698220  0.21389986  0.93484048  1
  H  H264  1  0.47036423  0.46341068  0.71411932  1
  H  H265  1  0.39997589  0.30967572  0.70443638  1
  C  C266  1  0.31350923  0.29332848  0.72169949  1
  H  H267  1  0.36439473  0.43540318  0.97049983  1
  C  C268  1  0.39040916  0.26778981  0.72131906  1
  C  C269  1  0.46025658  0.36818316  0.73843541  1
  C  C270  1  0.34732289  0.25227711  0.72867247  1
  C  C271  1  0.48400715  0.32012302  0.93803896  1
  C  C272  1  0.44166936  0.34110536  0.93311959  1
  C  C273  1  0.44140273  0.38788299  0.62787237  1
  C  C274  1  0.47377622  0.48642458  0.79557216  1
  O  O275  1  0.39978183  0.39649629  0.62563268  1
  C  C276  1  0.43037949  0.36658356  0.82958336  1
  H  H277  1  0.32895178  0.45429901  0.63918762  1
  O  O278  1  0.32812870  0.33915267  0.70444922  1
  H  H279  1  0.39940712  0.38518584  0.82748632  1
  O  O280  1  0.27447089  0.28659566  0.72953923  1
  H  H281  1  0.47815285  0.46150822  0.87290114  1
  H  H282  1  0.25685991  0.08019648  0.88041597  1
  O  O283  1  0.49935311  0.18075846  0.66401881  1
  C  C284  1  0.42531033  0.60595151  0.10276313  1
  C  C285  1  0.39654979  0.64647412  0.12082417  1
  H  H286  1  0.36311881  0.63487794  0.14541632  1
  C  C287  1  0.46631622  0.61700891  0.05980653  1
  C  C288  1  0.41007176  0.70008734  0.11559921  1
  C  C289  1  0.42142564  0.65823070  0.37436211  1
  H  H290  1  0.41772420  0.56393536  0.12212722  1
  C  C291  1  0.45303805  0.70945871  0.07187356  1
  C  C292  1  0.46345028  0.64229874  0.35427919  1
  H  H293  1  0.32476140  0.69098924  0.12735281  1
  H  H294  1  0.41450349  0.70052347  0.38223314  1
  C  C295  1  0.47103101  0.58870972  0.34542091  1
  H  H296  1  0.36273607  0.71243930  0.35659653  1
  C  C297  1  0.38943421  0.61996487  0.39422326  1
  C  C298  1  0.33673718  0.68844769  0.39107722  1
  C  C299  1  0.39713490  0.56391754  0.38494043  1
  C  C300  1  0.48034791  0.66872973  0.04666321  1
  C  C301  1  0.43815619  0.55085545  0.36515254  1
  C  C302  1  0.49919310  0.57667329  0.03583617  1
  C  C303  1  0.33545585  0.73011043  0.14008852  1
  C  C304  1  0.29742791  0.55769972  0.01195805  1
  H  H305  1  0.48988878  0.67117490  0.34562887  1
  C  C306  1  0.34412807  0.63601350  0.42211131  1
  C  C307  1  0.29446367  0.70693149  0.40578415  1
  C  C308  1  0.37944383  0.91321669  0.48178304  1
  H  H309  1  0.37062140  0.53581186  0.39930205  1
  O  O310  1  0.49341796  0.53233138  0.07317913  1
  C  C311  1  0.31513602  0.81959593  0.17394876  1
  C  C312  1  0.36044954  0.89045993  0.15138109  1
  C  C313  1  0.25306709  0.84753292  0.46568299  1
  C  C314  1  0.25084489  0.79669344  0.41702109  1
  C  C315  1  0.26178792  0.67230430  0.44035728  1
  H  H316  1  0.27589385  0.53880842  0.07208704  1
  C  C317  1  0.37999792  0.74313795  0.13940253  1
  C  C318  1  0.33847236  0.53630339  0.00394267  1
  C  C319  1  0.39346226  0.79479555  0.16450233  1
  H  H320  1  0.35878504  0.77289736  0.45718790  1
  H  H321  1  0.48844217  0.76344463  0.30268969  1
  H  H322  1  0.48772200  0.74367491  0.45239916  1
  C  C323  1  0.42043888  0.93425445  0.49226938  1
  H  H324  1  0.35465419  0.93255464  0.42687053  1
  C  C325  1  0.49708155  0.86860347  0.23843992  1
  C  C326  1  0.28898663  0.76640461  0.42481811  1
  H  H327  1  0.42971536  0.97177480  0.45774009  1
  H  H328  1  0.48439709  0.81231649  0.40908297  1
  H  H329  1  0.37979261  0.95537996  0.04816462  1
  C  C330  1  0.30228274  0.76745099  0.15165016  1
  H  H331  1  0.32645724  0.97136879  0.17908467  1
  O  O332  1  0.43439133  0.80203433  0.17116443  1
  C  C333  1  0.35861586  0.83270829  0.17036914  1
  C  C334  1  0.38208544  0.91373621  0.05910345  1
  O  O335  1  0.30127326  0.92768786  0.28205936  1
  H  H336  1  0.46709240  0.74811695  0.06070507  1
  H  H337  1  0.44803163  0.87635254  0.11287931  1
  H  H338  1  0.42915356  0.87132130  0.26632437  1
  H  H339  1  0.29042425  0.84921057  0.18076678  1
  C  C340  1  0.32925938  0.92672596  0.20988562  1
  C  C341  1  0.45161133  0.85709862  0.19965303  1
  H  H342  1  0.32918202  0.54876755  0.23575226  1
  C  C343  1  0.27417390  0.62213307  0.46808476  1
  C  C344  1  0.32744015  0.79186994  0.46455629  1
  H  H345  1  0.49918487  0.91203054  0.22500688  1
  H  H346  1  0.44834881  0.50878405  0.35477068  1
  C  C347  1  0.33125193  0.50754488  0.21055641  1
  C  C348  1  0.31559540  0.59833423  0.47574248  1
  C  C349  1  0.25346949  0.75879231  0.14583050  1
  H  H350  1  0.30665357  0.63742044  0.76908720  1
  C  C351  1  0.39697407  0.61047698  0.65201734  1
  C  C352  1  0.44946794  0.67047522  0.80517909  1
  C  C353  1  0.43548075  0.62872888  0.61697283  1
  C  C354  1  0.38601774  0.61651466  0.76987556  1
  C  C355  1  0.41169211  0.64812276  0.84404418  1
  H  H356  1  0.37682049  0.58720151  0.59586610  1
  C  C357  1  0.31226140  0.60946093  0.84213429  1
  C  C358  1  0.35414896  0.58862863  0.84820728  1
  C  C359  1  0.46356838  0.65665801  0.69234801  1
  H  H360  1  0.44659818  0.61932034  0.53028675  1
  H  H361  1  0.44769804  0.56759785  0.85898070  1
  C  C362  1  0.28243931  0.59104954  0.92516858  1
  H  H363  1  0.46873848  0.69462082  0.86522032  1
  C  C364  1  0.43717294  0.52808861  0.81605879  1
  H  H365  1  0.27546360  0.55846065  0.63042150  1
  C  C366  1  0.36989284  0.54623063  0.91807762  1
  C  C367  1  0.40365601  0.88239702  0.97518871  1
  O  O368  1  0.40531919  0.51810861  0.91099593  1
  H  H369  1  0.40185062  0.65337277  0.93154969  1
  C  C370  1  0.43610524  0.90546798  0.90927838  1
  H  H371  1  0.41988311  0.53464685  0.73471979  1
  H  H372  1  0.33399805  0.96703102  0.62404275  1
  H  H373  1  0.29216018  0.95679609  0.73704064  1
  C  C374  1  0.40154598  0.83597608  0.59485708  1
  H  H375  1  0.34191763  0.90293631  0.83221498  1
  C  C376  1  0.28706337  0.87312605  0.53026020  1
  C  C377  1  0.34550811  0.90112005  0.73475495  1
  C  C378  1  0.46880293  0.92829472  0.84768905  1
  C  C379  1  0.44290915  0.85560305  0.60731419  1
  C  C380  1  0.36887187  0.86356890  0.53476166  1
  C  C381  1  0.45050895  0.90533939  0.55822500  1
  H  H382  1  0.34337715  0.85875307  0.71041333  1
  H  H383  1  0.39130027  0.79988596  0.63221397  1
  H  H384  1  0.37559563  0.91861231  0.70129266  1
  O  O385  1  0.27783326  0.91742229  0.58546170  1
  C  C386  1  0.31460555  0.93760492  0.67210204  1
  H  H387  1  0.46639245  0.83454326  0.66500134  1
  H  H388  1  0.46857258  0.92189513  0.75309705  1
  C  C389  1  0.29068825  0.52429676  0.59304001  1
  O  O390  1  0.32360136  0.55179314  0.51909645  1
  C  C391  1  0.49551190  0.92274416  0.56769612  1
  H  H392  1  0.26382764  0.50403462  0.54900682  1
  O  O393  1  0.31510380  0.99185126  0.99015711  1
  H  H394  1  0.40160647  0.83906061  0.97772428  1
  C  C395  1  0.32457342  0.84250600  0.51898259  1
  O  O396  1  0.64278290  0.06720481  0.28196351  1
  O  O397  1  0.66492571  0.16262910  0.21921977  1
  H  H398  1  0.56980765  0.06965558  0.33443141  1
  C  C399  1  0.69623344  0.18837414  0.26687981  1
  C  C400  1  0.65244635  0.06741135  0.38826597  1
  O  O401  1  0.71521956  0.17511615  0.35884522  1
  C  C402  1  0.57543830  0.06811301  0.42746397  1
  Cu  Cu403  1  0.66950979  0.09687016  0.15324080  1
  C  C404  1  0.52245368  0.29935574  0.13118265  1
  H  H405  1  0.59742714  0.21424038  0.27203504  1
  C  C406  1  0.71331678  0.23027197  0.19802399  1
  C  C407  1  0.74711496  0.26162318  0.24201873  1
  H  H408  1  0.66882750  0.21650247  0.05571021  1
  C  C409  1  0.59663233  0.33904401  0.13983756  1
  Cu  Cu410  1  0.73995987  0.05519877  0.19057668  1
  C  C411  1  0.58294056  0.33315836  0.47875285  1
  H  H412  1  0.65801611  0.25140300  0.39132060  1
  O  O413  1  0.69686389  0.12235997  0.02373916  1
  C  C414  1  0.63335874  0.37185584  0.07857706  1
  H  H415  1  0.52146166  0.34808863  0.39521345  1
  Cu  Cu416  1  0.73945590  0.10341164  0.37160114  1
  C  C417  1  0.61693407  0.06907754  0.47184980  1
  O  O418  1  0.58829009  0.47770318  0.20937671  1
  H  H419  1  0.58827074  0.35998898  0.22017541  1
  C  C420  1  0.55033366  0.32352872  0.39896454  1
  H  H421  1  0.70014711  0.40488822  0.46888196  1
  O  O422  1  0.55660890  0.33004399  0.08744185  1
  C  C423  1  0.52070881  0.27181684  0.23523759  1
  H  H424  1  0.63403659  0.43959564  0.38188056  1
  C  C425  1  0.66402017  0.44073474  0.33373860  1
  C  C426  1  0.69481306  0.24198702  0.09087086  1
  C  C427  1  0.62745534  0.26712945  0.39611377  1
  H  H428  1  0.61106757  0.30097054  0.16718091  1
  C  C429  1  0.55505042  0.27795903  0.33157357  1
  C  C430  1  0.62125236  0.30704603  0.47623297  1
  C  C431  1  0.62548440  0.48830712  0.16845074  1
  C  C432  1  0.70137310  0.47297908  0.16185814  1
  C  C433  1  0.70094447  0.42383259  0.38424295  1
  C  C434  1  0.73959912  0.43485234  0.32493291  1
  C  C435  1  0.66279447  0.46827222  0.22441406  1
  C  C436  1  0.59320105  0.24832327  0.32838393  1
  C  C437  1  0.73950933  0.45635514  0.21191033  1
  C  C438  1  0.74086058  0.32143906  0.07705150  1
  O  O439  1  0.69011263  0.07309708  0.42348619  1
  H  H440  1  0.66315901  0.37097999  0.12559796  1
  H  H441  1  0.62061414  0.41104336  0.06280961  1
  C  C442  1  0.71214464  0.28347887  0.03264080  1
  H  H443  1  0.70018265  0.48944100  0.06905013  1
  H  H444  1  0.50846514  0.07220338  0.46850708  1
  H  H445  1  0.60038575  0.08931739  0.75340941  1
  C  C446  1  0.59289158  0.08068252  0.66399966  1
  C  C447  1  0.71956158  0.17196712  0.85722894  1
  C  C448  1  0.55044136  0.07854308  0.62545125  1
  C  C449  1  0.68379858  0.14840854  0.93150593  1
  C  C450  1  0.71119998  0.19749784  0.75542577  1
  C  C451  1  0.54351240  0.18534763  0.63587541  1
  H  H452  1  0.65932787  0.07658374  0.62028969  1
  O  O453  1  0.64737529  0.14972952  0.90323831  1
  H  H454  1  0.56434980  0.16328355  0.70091603  1
  C  C455  1  0.62655551  0.07667464  0.58932306  1
  H  H456  1  0.67844657  0.19609628  0.72111103  1
  C  C457  1  0.56401571  0.24062189  0.61882152  1
  C  C458  1  0.70013687  0.48397156  0.84869897  1
  C  C459  1  0.74394062  0.21896414  0.68715072  1
  H  H460  1  0.54360631  0.16326691  0.55128384  1
  O  O461  1  0.69167110  0.30469281  0.56489887  1
  C  C462  1  0.73049639  0.44674642  0.90266732  1
  C  C463  1  0.65906427  0.32907298  0.56352536  1
  O  O464  1  0.68938645  0.36754607  0.88814602  1
  C  C465  1  0.51504507  0.32555039  0.84820627  1
  H  H466  1  0.55391992  0.26833692  0.69118723  1
  H  H467  1  0.73570828  0.23362318  0.60032145  1
  H  H468  1  0.74538160  0.47552845  0.64376024  1
  O  O469  1  0.65118260  0.36841515  0.61974005  1
  C  C470  1  0.71917567  0.39085306  0.92990910  1
  H  H471  1  0.59976073  0.24237624  0.60899738  1
  H  H472  1  0.66302618  0.42021231  0.76934725  1
  C  C473  1  0.66636411  0.46373914  0.77504756  1
  H  H474  1  0.69987641  0.29259245  0.94736006  1
  H  H475  1  0.54877473  0.31479188  0.86199396  1
  H  H476  1  0.52448736  0.35263777  0.66815691  1
  C  C477  1  0.50248563  0.34972212  0.74275454  1
  H  H478  1  0.61119106  0.47937137  0.66353657  1
  C  C479  1  0.54333774  0.07249613  0.50535389  1
  H  H480  1  0.54873422  0.25882065  0.53795498  1
  C  C481  1  0.50872705  0.08743721  0.69187206  1
  H  H482  1  0.53074044  0.12110069  0.90514783  1
  H  H483  1  0.57533287  0.36473220  0.53988223  1
  H  H484  1  0.64105449  0.35800097  0.98950742  1
  H  H485  1  0.58993071  0.12936288  0.92400844  1
  C  C486  1  0.55759477  0.14661213  0.90748659  1
  C  C487  1  0.63793612  0.49621987  0.71940861  1
  H  H488  1  0.58102780  0.22445406  0.89018240  1
  C  C489  1  0.55415846  0.19607495  0.87900454  1
  H  H490  1  0.52297093  0.21560621  0.85578692  1
  C  C491  1  0.62382982  0.68412630  0.12146801  1
  C  C492  1  0.63038082  0.66963290  0.32443294  1
  H  H493  1  0.62537073  0.60503826  0.19255772  1
  C  C494  1  0.62729038  0.64831947  0.21343970  1
  C  C495  1  0.51485396  0.56918292  0.33455426  1
  O  O496  1  0.54475167  0.60050036  0.35153232  1
  H  H497  1  0.62907616  0.64736709  0.40536926  1
  C  C498  1  0.63254131  0.72509411  0.34121476  1
  C  C499  1  0.62071098  0.73916684  0.13776555  1
  C  C500  1  0.63747639  0.74011124  0.46800146  1
  C  C501  1  0.73720401  0.57719819  0.28097454  1
  O  O502  1  0.52129914  0.52117871  0.31141494  1
  H  H503  1  0.69253349  0.73028229  0.16501665  1
  C  C504  1  0.72823326  0.73641443  0.15137212  1
  H  H505  1  0.65583286  0.93625760  0.25029067  1
  C  C506  1  0.61686679  0.66512233  0.00611248  1
  H  H507  1  0.56323857  0.72979609  0.40438163  1
  Cu  Cu508  1  0.58527087  0.55371795  0.02119766  1
  H  H509  1  0.73007361  0.77040554  0.39240790  1
  C  C510  1  0.68865034  0.83581853  0.43359270  1
  Cu  Cu511  1  0.53535824  0.50351418  0.15880214  1
  O  O512  1  0.67674258  0.99730022  0.04048717  1
  H  H513  1  0.74068926  0.51345964  0.40262312  1
  H  H514  1  0.69344822  0.69485734  0.43351624  1
  C  C515  1  0.71234959  0.80542764  0.35983890  1
  O  O516  1  0.61881695  0.95032872  0.42722871  1
  C  C517  1  0.62872761  0.76043321  0.24653195  1
  H  H518  1  0.61713880  0.76502315  0.06490179  1
  H  H519  1  0.70083916  0.88135219  0.10876228  1
  C  C520  1  0.67129084  0.89803100  0.27648150  1
  Cu  Cu521  1  0.56459963  0.95806696  0.48094513  1
  C  C522  1  0.66649324  0.88059451  0.39077400  1
  C  C523  1  0.70797735  0.97227308  0.06420782  1
  H  H524  1  0.51385927  0.67718192  0.01690818  1
  C  C525  1  0.69404432  0.86752489  0.19756100  1
  H  H526  1  0.52478873  0.84765733  0.19349686  1
  H  H527  1  0.56529116  0.78721088  0.31844490  1
  C  C528  1  0.55080114  0.77215064  0.40043978  1
  C  C529  1  0.71421685  0.82024644  0.23993078  1
  H  H530  1  0.63233920  0.80278059  0.26562331  1
  H  H531  1  0.50330228  0.86402001  0.33530354  1
  C  C532  1  0.50179273  0.77308596  0.39067600  1
  O  O533  1  0.62963033  0.51454453  0.07664333  1
  O  O534  1  0.73027451  0.98616051  0.15257779  1
  C  C535  1  0.63902739  0.91186661  0.46654269  1
  H  H536  1  0.71378703  0.59963520  0.33451612  1
  C  C537  1  0.74798894  0.78571346  0.18738858  1
  H  H538  1  0.71749953  0.55508594  0.21381731  1
  C  C539  1  0.67668898  0.72187875  0.49500775  1
  O  O540  1  0.57851556  0.56961440  0.61754725  1
  C  C541  1  0.61173003  0.58724486  0.66915035  1
  C  C542  1  0.64346871  0.55119499  0.72210952  1
  O  O543  1  0.61828606  0.63494039  0.67909601  1
  C  C544  1  0.67533016  0.57309124  0.79514746  1
  Cu  Cu545  1  0.58567749  0.67885386  0.76855513  1
  O  O546  1  0.51518332  0.65975884  0.55307112  1
  H  H547  1  0.67294485  0.61502952  0.80769370  1
  C  C548  1  0.70333160  0.54089342  0.86109062  1
  O  O549  1  0.53197911  0.69753823  0.72012715  1
  O  O550  1  0.60684465  0.69522915  0.92161325  1
  H  H551  1  0.72701525  0.63107804  0.63726771  1
  C  C552  1  0.50658090  0.67294169  0.65629000  1
  H  H553  1  0.73313507  0.57029579  0.62020047  1
  C  C554  1  0.69460861  0.73275850  0.60224258  1
  O  O555  1  0.57411724  0.78776399  0.51670487  1
  H  H556  1  0.72714587  0.55876797  0.92116648  1
  O  O557  1  0.51721039  0.89418522  0.63499753  1
  C  C558  1  0.72370695  0.92466914  0.98916705  1
  H  H559  1  0.67979380  0.84922154  0.78957981  1
  O  O560  1  0.63553366  0.89651574  0.56846710  1
  C  C561  1  0.50747476  0.95076379  0.89793183  1
  H  H562  1  0.69149780  0.77029031  0.77097348  1
  C  C563  1  0.61119281  0.77183564  0.53943807  1
  C  C564  1  0.63425214  0.78369810  0.65159706  1
  C  C565  1  0.74092576  0.71207314  0.61440092  1
  O  O566  1  0.53703593  0.96794019  0.94637878  1
  H  H567  1  0.55967791  0.83723974  0.84219367  1
  C  C568  1  0.69520536  0.90145090  0.93121352  1
  C  C569  1  0.62365740  0.86827848  0.90032872  1
  Cu  Cu570  1  0.57871791  0.88664374  0.62042470  1
  C  C571  1  0.66619859  0.87258108  0.86206983  1
  C  C572  1  0.61269687  0.81154604  0.73757534  1
  C  C573  1  0.67613051  0.76429358  0.68757425  1
  C  C574  1  0.59404703  0.83878117  0.82847537  1
  H  H575  1  0.61405144  0.88727144  0.98164519  1
  O  O576  1  0.62314594  0.61730135  0.98725154  1
  Cu  Cu577  1  0.55483199  0.61074102  0.50014432  1
  H  H578  1  0.68779510  0.82884966  0.52318576  1
  H  H579  1  0.50495968  0.50679774  0.78462430  1
  O  O580  1  0.51062907  0.96269707  0.52020123  1
  H  H581  1  0.51171977  0.99952452  0.73400827  1
  O  O582  1  0.53231275  0.58968946  0.97936379  1
  C  C583  1  0.83826199  0.15998464  0.15249440  1
  C  C584  1  0.80705203  0.12519718  0.20808337  1
  O  O585  1  0.79254045  0.12916736  0.30943953  1
  O  O586  1  0.79725787  0.08584616  0.14655587  1
  H  H587  1  0.94504693  0.20975279  0.44013926  1
  C  C588  1  0.85272896  0.20209493  0.22129159  1
  H  H589  1  0.84232191  0.20647198  0.31257042  1
  C  C590  1  0.88317102  0.23721487  0.17508101  1
  C  C591  1  0.90008400  0.22925517  0.06320763  1
  H  H592  1  0.97474162  0.18406356  0.06041923  1
  C  C593  1  0.80121302  0.44251931  0.00783313  1
  C  C594  1  0.88978955  0.49169937  0.45624305  1
  C  C595  1  0.85467394  0.15140273  0.03787435  1
  C  C596  1  0.86206701  0.40445184  0.48245360  1
  H  H597  1  0.95576567  0.49411242  0.33214740  1
  C  C598  1  0.78324853  0.42531159  0.38157945  1
  H  H599  1  0.86087514  0.39837556  0.15298995  1
  H  H600  1  0.78085454  0.33462373  0.22660879  1
  C  C601  1  0.85130201  0.45453084  0.44506462  1
  C  C602  1  0.75000031  0.37065918  0.01592810  1
  C  C603  1  0.90823956  0.46127970  0.15712570  1
  C  C604  1  0.98127972  0.34679949  0.25276393  1
  C  C605  1  0.78669951  0.39539393  0.05417515  1
  C  C606  1  0.75669210  0.30886404  0.19054630  1
  C  C607  1  0.83062236  0.36361191  0.47241701  1
  H  H608  1  0.89841233  0.26736991  0.22805893  1
  H  H609  1  0.98961620  0.30570644  0.22406398  1
  C  C610  1  0.87149431  0.43674833  0.11706337  1
  C  C611  1  0.84223887  0.46487329  0.04606347  1
  C  C612  1  0.79118863  0.37389293  0.42062853  1
  H  H613  1  0.92906083  0.35319690  0.13414385  1
  H  H614  1  0.76975296  0.34313862  0.40260649  1
  C  C615  1  0.93861190  0.42818024  0.22620112  1
  C  C616  1  0.81284671  0.46745486  0.38616026  1
  C  C617  1  0.94799299  0.37489440  0.19997408  1
  H  H618  1  0.80880664  0.37877037  0.12427951  1
  H  H619  1  0.77205675  0.46292148  0.17096628  1
  C  C620  1  0.96439175  0.45239119  0.31133975  1
  H  H621  1  0.90762943  0.32569361  0.49414866  1
  H  H622  1  0.84504000  0.29837048  0.02085307  1
  C  C623  1  0.99449957  0.42537337  0.36926515  1
  H  H624  1  0.76540958  0.25015104  0.32374565  1
  C  C625  1  0.97599243  0.22577774  0.02420027  1
  C  C626  1  0.93908804  0.25544861  0.00933916  1
  O  O627  1  0.88146996  0.18000675  0.72573891  1
  C  C628  1  0.93060065  0.17263845  0.74640204  1
  H  H629  1  0.94460291  0.20975407  0.78197107  1
  C  C630  1  0.94093076  0.12243886  0.81452522  1
  H  H631  1  0.96973136  0.09822966  0.78393865  1
  C  C632  1  0.79589298  0.18851495  0.82549188  1
  H  H633  1  0.91412958  0.09424829  0.80935255  1
  H  H634  1  0.89999587  0.18137573  0.91010836  1
  H  H635  1  0.94353738  0.17102538  0.65876419  1
  H  H636  1  0.94601600  0.13292385  0.90825963  1
  C  C637  1  0.78829991  0.21283663  0.71886487  1
  H  H638  1  0.83090557  0.18695807  0.85341051  1
  C  C639  1  0.86922730  0.22181191  0.66421723  1
  H  H640  1  0.89472828  0.39514205  0.51124339  1
  C  C641  1  0.84213268  0.30952612  0.52576000  1
  C  C642  1  0.82466453  0.23401921  0.64551817  1
  H  H643  1  0.91554673  0.45710076  0.61706200  1
  O  O644  1  0.79150993  0.38876114  0.70243612  1
  O  O645  1  0.90195592  0.33278571  0.92690198  1
  H  H646  1  0.88063976  0.49996531  0.74434727  1
  C  C647  1  0.94619211  0.25537945  0.60258582  1
  C  C648  1  0.82251527  0.42867929  0.72148304  1
  C  C649  1  0.91817663  0.48850129  0.55265139  1
  C  C650  1  0.76230468  0.16900319  0.89312801  1
  C  C651  1  0.98770237  0.38598073  0.91813209  1
  C  C652  1  0.95377572  0.42366308  0.92461977  1
  C  C653  1  0.77007667  0.46650357  0.92920382  1
  H  H654  1  0.86761212  0.26984528  0.89186685  1
  O  O655  1  0.85615148  0.41549968  0.76124858  1
  C  C656  1  0.85642325  0.30655125  0.93380257  1
  C  C657  1  0.89747713  0.25557619  0.60522849  1
  H  H658  1  0.80575873  0.36832655  0.88674804  1
  C  C659  1  0.95952012  0.47539053  0.89034292  1
  H  H660  1  0.76689032  0.40999863  0.67234904  1
  C  C661  1  0.81112313  0.27830542  0.58060626  1
  H  H662  1  0.79450982  0.29651004  0.84825575  1
  C  C663  1  0.97781962  0.33065808  0.95405762  1
  H  H664  1  0.95836794  0.29978824  0.76770935  1
  H  H665  1  0.83222854  0.33317113  0.77052465  1
  C  C666  1  0.81891872  0.32725844  0.85673908  1
  H  H667  1  0.77910926  0.29054130  0.58235733  1
  C  C668  1  0.93726299  0.30706900  0.95874873  1
  H  H669  1  0.92369163  0.40957146  0.96173673  1
  C  C670  1  0.97164459  0.28081010  0.69167191  1
  C  C671  1  0.81402381  0.48596188  0.69116679  1
  C  C672  1  0.88586271  0.29889906  0.54026431  1
  C  C673  1  0.88472012  0.18621270  0.99362866  1
  C  C674  1  0.96609158  0.22721053  0.51054697  1
  H  H675  1  0.84504283  0.11612470  0.99610266  1
  H  H676  1  0.76701578  0.14622436  0.97643683  1
  H  H677  1  0.87040956  0.66958055  0.23613414  1
  O  O678  1  0.95043585  0.53664586  0.16847013  1
  C  C679  1  0.88583438  0.70720969  0.22322326  1
  C  C680  1  0.92890110  0.71411101  0.25039788  1
  C  C681  1  0.80168815  0.70029973  0.11881462  1
  H  H682  1  0.92731169  0.60486333  0.33187410  1
  C  C683  1  0.92574046  0.57059976  0.39763533  1
  H  H684  1  0.94975179  0.68376049  0.29321959  1
  C  C685  1  0.91898787  0.51629673  0.12996402  1
  H  H686  1  0.86580733  0.54117612  0.32165674  1
  C  C687  1  0.89101144  0.53827934  0.38999731  1
  O  O688  1  0.80452235  0.51700417  0.34164111  1
  H  H689  1  0.94625751  0.84330898  0.14800775  1
  C  C690  1  0.81612216  0.63023661  0.35056214  1
  C  C691  1  0.89476843  0.59679373  0.01879256  1
  H  H692  1  0.77229348  0.56962876  0.43168969  1
  H  H693  1  0.81843959  0.66693076  0.07467187  1
  H  H694  1  0.94955046  0.61794751  0.13152339  1
  C  C695  1  0.95439289  0.56775861  0.49224583  1
  C  C696  1  0.79870609  0.67496101  0.37243385  1
  C  C697  1  0.79293120  0.79393666  0.19690777  1
  C  C698  1  0.92775455  0.63146049  0.06656574  1
  H  H699  1  0.83671887  0.76175672  0.38100996  1
  H  H700  1  0.79230171  0.70225680  0.30243458  1
  C  C701  1  0.88825857  0.79930834  0.13994613  1
  C  C702  1  0.86467360  0.75224743  0.17477554  1
  C  C703  1  0.81754057  0.75186090  0.15956368  1
  C  C704  1  0.76371342  0.54174886  0.36180372  1
  O  O705  1  0.98403466  0.64483844  0.42839174  1
  C  C706  1  0.85186399  0.78800765  0.44400192  1
  C  C707  1  0.85098458  0.51700035  0.01086272  1
  H  H708  1  0.76675189  0.85824577  0.33753243  1
  O  O709  1  0.81282701  0.83787424  0.23777967  1
  H  H710  1  0.90055525  0.81483537  0.32744668  1
  C  C711  1  0.88811177  0.54253088  0.05230210  1
  C  C712  1  0.94917119  0.76105446  0.21912891  1
  C  C713  1  0.80748337  0.93141715  0.33773055  1
  C  C714  1  0.93097042  0.80540502  0.16381511  1
  C  C715  1  0.78760828  0.88138316  0.27814462  1
  H  H716  1  0.76696184  0.89644981  0.20492880  1
  C  C717  1  0.94898809  0.87576353  0.45955820  1
  H  H718  1  0.87017507  0.83100421  0.10579310  1
  C  C719  1  0.75936612  0.70145862  0.12404783  1
  H  H720  1  0.82303261  0.61820654  0.26390557  1
  H  H721  1  0.78380189  0.95777752  0.38479083  1
  O  O722  1  0.95866232  0.87842956  0.35424551  1
  C  C723  1  0.88585156  0.81945087  0.41037903  1
  H  H724  1  0.95346975  0.70989585  0.07215486  1
  H  H725  1  0.79244139  0.69046740  0.46269885  1
  H  H726  1  0.82732736  0.95241963  0.27184721  1
  H  H727  1  0.75761142  0.60381467  0.22858342  1
  H  H728  1  0.83082735  0.91443258  0.40194483  1
  C  C729  1  0.99362925  0.76611460  0.25253858  1
  C  C730  1  0.91009651  0.84991159  0.48803736  1
  C  C731  1  0.93264367  0.68150400  0.02813391  1
  H  H732  1  0.82488805  0.60200634  0.41234105  1
  C  C733  1  0.79630036  0.64715293  0.64394525  1
  C  C734  1  0.84479145  0.57038362  0.68629228  1
  H  H735  1  0.87371625  0.59520641  0.69264014  1
  O  O736  1  0.86745931  0.66952170  0.65062070  1
  C  C737  1  0.82813701  0.68704539  0.63397694  1
  C  C738  1  0.90694564  0.70680556  0.64604315  1
  C  C739  1  0.80322361  0.59010263  0.65812315  1
  O  O740  1  0.97041926  0.89537363  0.54419570  1
  H  H741  1  0.96167256  0.65851980  0.65662822  1
  C  C742  1  0.76644510  0.55731956  0.64482789  1
  C  C743  1  0.94993399  0.69277706  0.70360816  1
  H  H744  1  0.77675664  0.50155600  0.88302082  1
  C  C745  1  0.86944819  0.66957622  0.89620100  1
  H  H746  1  0.84497531  0.68510311  0.83522777  1
  H  H747  1  0.97325301  0.72601458  0.68974340  1
  C  C748  1  0.90344115  0.70260030  0.94294037  1
  C  C749  1  0.85066821  0.51789697  0.70885116  1
  H  H750  1  0.83931236  0.59646337  0.88582645  1
  H  H751  1  0.94935475  0.68811271  0.79689976  1
  O  O752  1  0.91888731  0.79970538  0.88995252  1
  H  H753  1  0.93504184  0.50546661  0.89992820  1
  C  C754  1  0.86570376  0.61875452  0.93278781  1
  H  H755  1  0.89203452  0.73767939  0.70131285  1
  C  C756  1  0.81374789  0.73736937  0.59912970  1
  H  H757  1  0.91029384  0.72244879  0.55490492  1
  C  C758  1  0.94976589  0.52729062  0.56896681  1
  H  H759  1  0.97376280  0.52570649  0.64128721  1
  C  C760  1  0.89848996  0.84683594  0.60654641  1
  C  C761  1  0.86278089  0.81836404  0.64178516  1
  C  C762  1  0.91044889  0.75664368  0.91031561  1
  H  H763  1  0.76188175  0.79442658  0.58264385  1
  C  C764  1  0.83959041  0.78586842  0.56068493  1
  H  H765  1  0.82571795  0.53968159  0.95936390  1
  C  C766  1  0.77172408  0.75386071  0.59855835  1
  H  H767  1  0.91918540  0.86651487  0.67199738  1
  H  H768  1  0.85316128  0.81686930  0.73254061  1
  C  C769  1  0.77309248  0.50442502  0.65735074  1
  H  H770  1  0.75942747  0.91481744  0.97681352  1
  C  C771  1  0.75317853  0.65994828  0.63352361  1
  O  O772  1  0.97586211  0.57571922  0.80845139  1
  C  C773  1  0.98763623  0.60702241  0.50411235  1
