# generated using pymatgen
data_CuH15C22O5
_symmetry_space_group_name_H-M   'P 1'
_cell_length_a   34.43274664
_cell_length_b   30.33713870
_cell_length_c   8.59359821
_cell_angle_alpha   90.00000000
_cell_angle_beta   90.00000000
_cell_angle_gamma   90.00000000
_symmetry_Int_Tables_number   1
_chemical_formula_structural   CuH15C22O5
_chemical_formula_sum   'Cu18 H270 C396 O90'
_cell_volume   8976.79544098
_cell_formula_units_Z   18
loop_
 _symmetry_equiv_pos_site_id
 _symmetry_equiv_pos_as_xyz
  1  'x, y, z'
loop_
 _atom_site_type_symbol
 _atom_site_label
 _atom_site_symmetry_multiplicity
 _atom_site_fract_x
 _atom_site_fract_y
 _atom_site_fract_z
 _atom_site_occupancy
  H  H0  1  0.17284531  0.18147681  0.18196976  1
  C  C1  1  0.24302539  0.11658886  0.44087723  1
  H  H2  1  0.12180528  0.07235604  0.91623139  1
  C  C3  1  0.16900521  0.07933575  0.50872129  1
  H  H4  1  0.20699645  0.21394724  0.66231730  1
  C  C5  1  0.07041910  0.03349006  0.36987026  1
  C  C6  1  0.10879090  0.10764643  0.57593183  1
  C  C7  1  0.10344251  0.15450999  0.03775631  1
  H  H8  1  0.06713484  0.06654644  0.41567359  1
  C  C9  1  0.13634321  0.06878526  0.59170312  1
  H  H10  1  0.24106113  0.14262744  0.70628621  1
  H  H11  1  0.18735129  0.04010812  0.88202188  1
  O  O12  1  0.01040354  0.23593013  0.66585589  1
  O  O13  1  0.06367463  0.08141118  0.05787900  1
  H  H14  1  0.21805313  0.13282338  0.38947851  1
  H  H15  1  0.06925885  0.16998766  0.28065729  1
  C  C16  1  0.07492136  0.22748721  0.02790304  1
  C  C17  1  0.03093357  0.06631863  0.06144266  1
  C  C18  1  0.06773548  0.13355413  0.04800351  1
  H  H19  1  0.13870057  0.21377689  0.99360684  1
  C  C20  1  0.10063823  0.02448763  0.27020123  1
  C  C21  1  0.07641937  0.16297109  0.40082120  1
  C  C22  1  0.14303254  0.13198739  0.04095931  1
  H  H23  1  0.05094914  0.07550215  0.60665499  1
  C  C24  1  0.06474037  0.16469741  0.67732377  1
  C  C25  1  0.02336033  0.05680698  0.61715356  1
  C  C26  1  0.10279166  0.12725825  0.42316832  1
  H  H27  1  0.17015884  0.10942853  0.44132093  1
  C  C28  1  0.05637586  0.18249447  0.52895908  1
  C  C29  1  0.17612990  0.15143318  0.10848377  1
  C  C30  1  0.13001589  0.03166866  0.68205911  1
  H  H31  1  0.11705581  0.11444079  0.31638405  1
  O  O32  1  0.02003217  0.23743214  0.40097615  1
  C  C33  1  0.18405610  0.07157509  0.94443801  1
  C  C34  1  0.08708746  0.12738787  0.69923910  1
  C  C35  1  0.21303997  0.13141158  0.08775106  1
  C  C36  1  0.14740311  0.09094856  0.96376214  1
  H  H37  1  0.19209285  0.11679901  0.74099311  1
  C  C38  1  0.02833005  0.22035466  0.52014593  1
  C  C39  1  0.20205814  0.05085918  0.49987161  1
  H  H40  1  0.01046627  0.00471604  0.94487391  1
  C  C41  1  0.20808242  0.14614635  0.72124039  1
  H  H42  1  0.20695903  0.18475824  0.42921942  1
  H  H43  1  0.05051428  0.17856716  0.78149823  1
  C  C44  1  0.21694266  0.09121473  0.01002883  1
  H  H45  1  0.09140590  0.11150214  0.81078904  1
  O  O46  1  0.09757314  0.02925659  0.75744722  1
  C  C47  1  0.03862860  0.20806930  0.05479535  1
  H  H48  1  0.12094119  0.05014472  0.22437417  1
  C  C49  1  0.10816393  0.20070357  0.01283396  1
  C  C50  1  0.03535640  0.16117401  0.05171227  1
  C  C51  1  0.01468267  0.02011580  0.06783745  1
  C  C52  1  0.19560786  0.00655114  0.41162818  1
  C  C53  1  0.19003801  0.18407108  0.69902514  1
  C  C54  1  0.23265193  0.20451631  0.39584540  1
  C  C55  1  0.19862368  0.00574181  0.59564055  1
  H  H56  1  0.15801510  0.18567168  0.70743273  1
  H  H57  1  0.01308617  0.22668050  0.09220313  1
  H  H58  1  0.00938120  0.09241465  0.02543125  1
  H  H59  1  0.23894934  0.14654434  0.13709336  1
  C  C60  1  0.24162225  0.07286020  0.49696375  1
  H  H61  1  0.16572453  0.00120858  0.36641400  1
  C  C62  1  0.22814980  0.24981366  0.38979467  1
  C  C63  1  0.01398536  0.01506596  0.53910363  1
  C  C64  1  0.16214510  0.00015843  0.69661356  1
  H  H65  1  0.07215699  0.01075844  0.96209588  1
  H  H66  1  0.19944343  0.38991574  0.83299377  1
  C  C67  1  0.04207305  0.29698810  0.98852361  1
  C  C68  1  0.18555075  0.48547425  0.91451522  1
  H  H69  1  0.23771441  0.31686419  0.14863779  1
  C  C70  1  0.07662340  0.27776903  0.04377860  1
  H  H71  1  0.14991263  0.44820609  0.73613546  1
  C  C72  1  0.05778431  0.36829303  0.10960266  1
  C  C73  1  0.21018883  0.45384128  0.41126390  1
  O  O74  1  0.22477332  0.33690917  0.43186756  1
  C  C75  1  0.10471787  0.30435911  0.12421400  1
  H  H76  1  0.13413240  0.29005622  0.14946615  1
  C  C77  1  0.00079237  0.39874720  0.88178938  1
  H  H78  1  0.22001369  0.40491361  0.16818112  1
  C  C79  1  0.19147955  0.39831574  0.21927372  1
  C  C80  1  0.09382935  0.34838331  0.14476764  1
  C  C81  1  0.11594585  0.39962954  0.36006644  1
  H  H82  1  0.07222293  0.48731769  0.27688200  1
  H  H83  1  0.02954449  0.40560961  0.85518900  1
  C  C84  1  0.22185033  0.40564816  0.90358783  1
  C  C85  1  0.21652809  0.45143959  0.94639529  1
  H  H86  1  0.14197884  0.44150625  0.54801652  1
  O  O87  1  0.04923265  0.40911114  0.13638627  1
  C  C88  1  0.03168758  0.33970353  0.02312799  1
  C  C89  1  0.16266377  0.37149080  0.14843984  1
  H  H90  1  0.01931756  0.27482865  0.93002946  1
  H  H91  1  0.16666684  0.35565446  0.02928805  1
  H  H92  1  0.08550168  0.40069367  0.38851013  1
  O  O93  1  0.20235441  0.47885291  0.52078028  1
  C  C94  1  0.14543505  0.42372894  0.43373647  1
  C  C95  1  0.12640734  0.37465191  0.22289895  1
  C  C96  1  0.18205272  0.42310838  0.35040170  1
  C  C97  1  0.24533911  0.30292378  0.02894996  1
  H  H98  1  0.20002073  0.26663476  0.40926197  1
  C  C99  1  0.15508181  0.47979712  0.79771547  1
  Cu  Cu100  1  0.00060751  0.42485195  0.20079905  1
  O  O101  1  0.24415083  0.45562904  0.34805751  1
  O  O102  1  0.00452980  0.48472333  0.22749546  1
  Cu  Cu103  1  0.23859635  0.49935789  0.65769654  1
  C  C104  1  0.06920417  0.49439182  0.40317481  1
  C  C105  1  0.10207828  0.49959999  0.49315585  1
  H  H106  1  0.13058734  0.49978761  0.43056456  1
  C  C107  1  0.16227795  0.55866488  0.95771135  1
  H  H108  1  0.12865473  0.70080673  0.12988885  1
  C  C109  1  0.20727366  0.60605358  0.11876151  1
  H  H110  1  0.18753074  0.60722298  0.80574180  1
  C  C111  1  0.16958587  0.59956635  0.04846973  1
  H  H112  1  0.07851867  0.57744663  0.58844682  1
  H  H113  1  0.09292410  0.63413607  0.39371125  1
  C  C114  1  0.15136087  0.67427580  0.11289862  1
  O  O115  1  0.05461199  0.56531909  0.06560905  1
  O  O116  1  0.04464451  0.63220811  0.18709991  1
  C  C117  1  0.10506546  0.59624977  0.60079029  1
  H  H118  1  0.03160163  0.70457109  0.45674531  1
  H  H119  1  0.12711967  0.66228794  0.54232920  1
  C  C120  1  0.02883822  0.60297704  0.11837829  1
  C  C121  1  0.13995525  0.63468682  0.05318626  1
  C  C122  1  0.01373819  0.72848116  0.38963827  1
  H  H123  1  0.07329907  0.65977071  0.56927589  1
  H  H124  1  0.22845748  0.57844489  0.10478672  1
  H  H125  1  0.11124845  0.62732639  0.00549844  1
  O  O126  1  0.11351601  0.72857355  0.76958014  1
  C  C127  1  0.18305543  0.52237392  0.01147876  1
  C  C128  1  0.18906995  0.68066889  0.18083705  1
  C  C129  1  0.18168820  0.67613736  0.76137521  1
  C  C130  1  0.23213008  0.70640764  0.58055148  1
  C  C131  1  0.19516506  0.71067636  0.65987731  1
  H  H132  1  0.12937680  0.57599060  0.54183962  1
  O  O133  1  0.22885582  0.73928897  0.26660170  1
  C  C134  1  0.09976445  0.64085151  0.51801353  1
  O  O135  1  0.12273896  0.59736652  0.77183312  1
  C  C136  1  0.04756241  0.70469192  0.89246653  1
  C  C137  1  0.07095468  0.74158383  0.81158037  1
  H  H138  1  0.19813524  0.52082904  0.13195431  1
  C  C139  1  0.19787258  0.72623757  0.23370079  1
  H  H140  1  0.24743502  0.65477848  0.21641609  1
  O  O141  1  0.09100587  0.74114469  0.36559960  1
  C  C142  1  0.13671895  0.56020002  0.82433291  1
  H  H143  1  0.05409983  0.70446263  0.01935066  1
  C  C144  1  0.20156601  0.63651144  0.74812914  1
  H  H145  1  0.15687494  0.67978758  0.84370653  1
  C  C146  1  0.13259079  0.51634661  0.76635552  1
  H  H147  1  0.05507277  0.67057908  0.84767615  1
  C  C148  1  0.21850276  0.64748318  0.17087220  1
  C  C149  1  0.23556582  0.63177996  0.65741697  1
  H  H150  1  0.01610564  0.71329689  0.87063962  1
  C  C151  1  0.02893610  0.51077289  0.62796897  1
  O  O152  1  0.24313882  0.55428058  0.72668978  1
  H  H153  1  0.07865813  0.57911339  0.07439463  1
  H  H154  1  0.05762930  0.52264639  0.85049308  1
  C  C155  1  0.09838774  0.50809715  0.65744300  1
  C  C156  1  0.06129546  0.51386387  0.72464870  1
  H  H157  1  0.00147508  0.51397354  0.67962718  1
  H  H158  1  0.23562555  0.74750075  0.82733766  1
  O  O159  1  0.01698199  0.64186875  0.63275444  1
  H  H160  1  0.24772849  0.73502560  0.52292149  1
  Cu  Cu161  1  0.14132683  0.74973758  0.42635518  1
  C  C162  1  0.03205081  0.50088379  0.46816220  1
  H  H163  1  0.07776185  0.92551982  0.74391703  1
  C  C164  1  0.21762780  0.86098334  0.51861018  1
  C  C165  1  0.07703008  0.84683317  0.83385716  1
  O  O166  1  0.08800733  0.78492481  0.15843222  1
  H  H167  1  0.08724027  0.90854327  0.24050760  1
  H  H168  1  0.07295441  0.77275532  0.87802006  1
  H  H169  1  0.22508636  0.99418281  0.65174290  1
  H  H170  1  0.03198176  0.87653001  0.97357544  1
  C  C171  1  0.05227700  0.81600424  0.58295945  1
  C  C172  1  0.03778205  0.85607734  0.87243962  1
  H  H173  1  0.13306029  0.87000629  0.58469919  1
  C  C174  1  0.10700985  0.97822243  0.24264739  1
  H  H175  1  0.19030690  0.89848534  0.76566285  1
  H  H176  1  0.22998840  0.77697201  0.57778470  1
  O  O177  1  0.14675391  0.91869176  0.11655611  1
  Cu  Cu178  1  0.13901083  0.78352979  0.07328056  1
  H  H179  1  0.17502163  0.91551336  0.51137633  1
  C  C180  1  0.23001012  0.98006256  0.34285380  1
  H  H181  1  0.10055994  0.85615147  0.91795532  1
  C  C182  1  0.14009563  0.96970379  0.14066115  1
  Cu  Cu183  1  0.17845206  0.81264249  0.30548871  1
  C  C184  1  0.19963337  0.78742071  0.60394614  1
  C  C185  1  0.05126109  0.95398229  0.38098107  1
  C  C186  1  0.21694986  0.81123367  0.03648950  1
  C  C187  1  0.23323346  0.93205836  0.40705653  1
  C  C188  1  0.18670053  0.82973263  0.57787838  1
  H  H189  1  0.05660657  0.80204569  0.46657287  1
  O  O190  1  0.18691164  0.79579218  0.96791788  1
  C  C191  1  0.13499176  0.75836267  0.70815527  1
  H  H192  1  0.11152478  0.97216252  0.91952315  1
  C  C193  1  0.08260405  0.94228062  0.28823337  1
  C  C194  1  0.08680373  0.98784975  0.87220040  1
  C  C195  1  0.20622302  0.90444500  0.48627196  1
  C  C196  1  0.01445024  0.82110357  0.63484135  1
  C  C197  1  0.06054845  0.95393734  0.79057613  1
  H  H198  1  0.02984254  0.92521146  0.40865924  1
  C  C199  1  0.14542483  0.83698729  0.60253069  1
  C  C200  1  0.00599762  0.84189666  0.78132487  1
  C  C201  1  0.08451476  0.82345689  0.69268715  1
  C  C202  1  0.17475090  0.75363073  0.65851630  1
  H  H203  1  0.16553331  0.87017775  0.00484486  1
  C  C204  1  0.16581811  0.96143627  0.77558890  1
  H  H205  1  0.02010702  0.79725642  0.07378259  1
  C  C206  1  0.17211430  0.92110307  0.84006843  1
  C  C207  1  0.15988666  0.90581813  0.99595325  1
  O  O208  1  0.21153659  0.83471573  0.15498036  1
  C  C209  1  0.04483831  0.99929036  0.43167232  1
  C  C210  1  0.12376871  0.80308127  0.67151396  1
  C  C211  1  0.00531908  0.77966169  0.16626941  1
  C  C212  1  0.02946188  0.75506291  0.27067869  1
  C  C213  1  0.07120704  0.76010101  0.25827758  1
  H  H214  1  0.03801773  0.94243317  0.87266951  1
  H  H215  1  0.24087783  0.95448580  0.93366223  1
  O  O216  1  0.16115406  0.99459334  0.08104790  1
  O  O217  1  0.16748696  0.75562190  0.24377993  1
  H  H218  1  0.04671560  0.97170482  0.69629267  1
  H  H219  1  0.03598828  0.99788940  0.12853145  1
  H  H220  1  0.05797592  0.75058698  0.69970836  1
  O  O221  1  0.28338505  0.08826962  0.07418143  1
  H  H222  1  0.41978426  0.17065352  0.25730898  1
  H  H223  1  0.38549666  0.08458906  0.42817615  1
  Cu  Cu224  1  0.35235214  0.17829953  0.67268824  1
  C  C225  1  0.31425378  0.12151881  0.47416191  1
  C  C226  1  0.34469941  0.02875660  0.73636556  1
  C  C227  1  0.41756967  0.05536502  0.62207880  1
  Cu  Cu228  1  0.31746189  0.13105400  0.04191709  1
  C  C229  1  0.27173757  0.18643252  0.37596177  1
  O  O230  1  0.26226440  0.03799282  0.91170903  1
  C  C231  1  0.37962905  0.01649082  0.80922136  1
  O  O232  1  0.34514294  0.14609496  0.47480108  1
  C  C233  1  0.43380906  0.19542041  0.18563722  1
  O  O234  1  0.36024566  0.17028721  0.05554719  1
  C  C235  1  0.27670324  0.05502861  0.55027237  1
  O  O236  1  0.36934511  0.20997355  0.83836762  1
  C  C237  1  0.34773766  0.05766841  0.60910829  1
  C  C238  1  0.31177573  0.07977548  0.54254768  1
  H  H239  1  0.44705681  0.06479292  0.59750805  1
  C  C240  1  0.48832552  0.24349359  0.13369006  1
  C  C241  1  0.28470086  0.20062650  0.85023033  1
  C  C242  1  0.41586028  0.21037716  0.04535572  1
  C  C243  1  0.27712094  0.13992176  0.42083804  1
  C  C244  1  0.38510138  0.06841176  0.53824094  1
  C  C245  1  0.30326446  0.21289867  0.32113856  1
  H  H246  1  0.27826407  0.02220316  0.59853111  1
  H  H247  1  0.33081794  0.19458607  0.30438039  1
  C  C248  1  0.38013330  0.19691444  0.97232933  1
  C  C249  1  0.41625503  0.02940410  0.75712653  1
  O  O250  1  0.28248979  0.17377430  0.96141266  1
  H  H251  1  0.25144011  0.23805110  0.11064434  1
  O  O252  1  0.30122555  0.19027786  0.72188192  1
  C  C253  1  0.46980257  0.21054460  0.22980310  1
  H  H254  1  0.31615856  0.01742072  0.77898731  1
  C  C255  1  0.25551698  0.06923158  0.98874967  1
  O  O256  1  0.48795869  0.03085466  0.78961733  1
  C  C257  1  0.45363465  0.01508772  0.83178017  1
  H  H258  1  0.26103319  0.02454770  0.22149075  1
  H  H259  1  0.48410744  0.19902335  0.33764376  1
  C  C260  1  0.26896408  0.24568464  0.86111697  1
  C  C261  1  0.43569242  0.24345175  0.95886401  1
  O  O262  1  0.31644636  0.43466206  0.49997625  1
  H  H263  1  0.27787994  0.25890238  0.61228090  1
  C  C264  1  0.26962538  0.27283687  0.72621675  1
  C  C265  1  0.33056948  0.33202700  0.03959942  1
  H  H266  1  0.35869880  0.44392315  0.94351064  1
  O  O267  1  0.32403582  0.38494054  0.05958156  1
  C  C268  1  0.31242089  0.46088562  0.61358507  1
  H  H269  1  0.30594258  0.31913823  0.11262811  1
  C  C270  1  0.36871595  0.30813990  0.06467855  1
  Cu  Cu271  1  0.27721602  0.40866509  0.37915908  1
  C  C272  1  0.35367277  0.47090591  0.04099133  1
  H  H273  1  0.48405559  0.28818866  0.92363907  1
  C  C274  1  0.31510193  0.47591843  0.09883020  1
  O  O275  1  0.28554693  0.35357746  0.36540468  1
  H  H276  1  0.32096148  0.28215260  0.28163945  1
  H  H277  1  0.37546969  0.30403167  0.19221254  1
  H  H278  1  0.32215325  0.32911943  0.91712697  1
  H  H279  1  0.36765111  0.27454216  0.01455595  1
  H  H280  1  0.39581289  0.32319354  0.00927345  1
  O  O281  1  0.28131776  0.46347605  0.68588603  1
  C  C282  1  0.28305126  0.44694103  0.03262321  1
  H  H283  1  0.36633362  0.48200132  0.41654840  1
  H  H284  1  0.42113928  0.25685629  0.85790443  1
  C  C285  1  0.25630732  0.38300683  0.93414970  1
  C  C286  1  0.29094133  0.40129088  0.01004168  1
  C  C287  1  0.25358768  0.25884334  0.00537833  1
  C  C288  1  0.26164668  0.27656559  0.36916033  1
  C  C289  1  0.47054114  0.26188076  0.99891104  1
  C  C290  1  0.29799042  0.25879603  0.32462101  1
  H  H291  1  0.27070902  0.34226282  0.67074171  1
  H  H292  1  0.48574560  0.27708396  0.42038202  1
  C  C293  1  0.25589693  0.32427246  0.38548490  1
  C  C294  1  0.26548828  0.31694890  0.75670665  1
  C  C295  1  0.25441973  0.33332817  0.90496800  1
  C  C296  1  0.25005556  0.47145722  0.01453400  1
  C  C297  1  0.38213903  0.49971697  0.09107479  1
  H  H298  1  0.41154069  0.49869649  0.04293711  1
  C  C299  1  0.37066681  0.49812771  0.53253714  1
  C  C300  1  0.34145245  0.49464024  0.64764620  1
  H  H301  1  0.47847876  0.73993394  0.77294111  1
  H  H302  1  0.26795825  0.68282745  0.91017217  1
  C  C303  1  0.33318404  0.53827369  0.25234742  1
  C  C304  1  0.38507614  0.71869368  0.84786491  1
  C  C305  1  0.47524668  0.70168999  0.25607209  1
  C  C306  1  0.33973733  0.51982704  0.78227276  1
  H  H307  1  0.31401992  0.52123009  0.86477669  1
  O  O308  1  0.43428416  0.56670204  0.17804305  1
  H  H309  1  0.27514054  0.51115755  0.26055414  1
  H  H310  1  0.27765975  0.66382421  0.49211967  1
  O  O311  1  0.47962064  0.53577497  0.63556020  1
  H  H312  1  0.26662420  0.62054889  0.93587319  1
  C  C313  1  0.39924599  0.55276284  0.69216079  1
  C  C314  1  0.28163240  0.65251877  0.96207470  1
  H  H315  1  0.29792804  0.72132302  0.74781680  1
  C  C316  1  0.25768340  0.58822140  0.64738425  1
  Cu  Cu317  1  0.46395233  0.61413963  0.19252105  1
  H  H318  1  0.38321367  0.63834714  0.76437168  1
  C  C319  1  0.44265372  0.66536186  0.76505399  1
  C  C320  1  0.49324840  0.61065002  0.71436138  1
  C  C321  1  0.37018430  0.54811167  0.81046012  1
  C  C322  1  0.42851514  0.58994432  0.70910727  1
  H  H323  1  0.37145607  0.56572233  0.91860405  1
  C  C324  1  0.42337105  0.70944900  0.80058613  1
  O  O325  1  0.44026813  0.70291727  0.30146726  1
  H  H326  1  0.36559085  0.69304817  0.86753780  1
  C  C327  1  0.39961383  0.56784923  0.22611265  1
  C  C328  1  0.37065230  0.53378208  0.19367253  1
  C  C329  1  0.48159820  0.65304020  0.75857949  1
  Cu  Cu330  1  0.41101154  0.65153379  0.34341602  1
  C  C331  1  0.30910141  0.65519799  0.06672984  1
  H  H332  1  0.33141913  0.56527615  0.33653268  1
  C  C333  1  0.41367649  0.63018245  0.74351315  1
  O  O334  1  0.38590154  0.59951411  0.30497633  1
  C  C335  1  0.46841831  0.57480161  0.68195775  1
  H  H336  1  0.42705918  0.52717737  0.46922690  1
  C  C337  1  0.40246237  0.52579972  0.55612118  1
  C  C338  1  0.30410848  0.50906985  0.20972743  1
  H  H339  1  0.32002717  0.68644706  0.10894379  1
  O  O340  1  0.28745512  0.58628938  0.57612761  1
  H  H341  1  0.31942018  0.62488861  0.12230197  1
  C  C342  1  0.44897407  0.74576190  0.79595381  1
  H  H343  1  0.25063837  0.50735572  0.02902790  1
  C  C344  1  0.25099275  0.66641114  0.56700318  1
  C  C345  1  0.29753011  0.74656372  0.83929215  1
  O  O346  1  0.48935662  0.66531323  0.21304652  1
  C  C347  1  0.49938542  0.73924183  0.21837949  1
  C  C348  1  0.34374304  0.82199784  0.38925772  1
  C  C349  1  0.38305704  0.81586171  0.36778346  1
  C  C350  1  0.26158566  0.76362865  0.87721215  1
  C  C351  1  0.47027041  0.84891451  0.91026065  1
  C  C352  1  0.25512052  0.84668293  0.48228438  1
  H  H353  1  0.32259357  0.92065405  0.07229587  1
  C  C354  1  0.32484801  0.86340387  0.38168498  1
  C  C355  1  0.28082189  0.87599846  0.40136647  1
  C  C356  1  0.44987700  0.84877347  0.31659621  1
  O  O357  1  0.47435765  0.87499718  0.30490016  1
  C  C358  1  0.48848243  0.78336403  0.23786251  1
  H  H359  1  0.30608605  0.97976237  0.04171891  1
  H  H360  1  0.26389428  0.81510355  0.52703874  1
  C  C361  1  0.37670058  0.92004400  0.70225947  1
  C  C362  1  0.49315894  0.82572194  0.65138081  1
  C  C363  1  0.35064916  0.89986288  0.37566771  1
  C  C364  1  0.39394597  0.80008417  0.79535626  1
  C  C365  1  0.33112401  0.76752927  0.89916605  1
  H  H366  1  0.39622250  0.78178866  0.36408316  1
  H  H367  1  0.32640206  0.78977495  0.40217720  1
  C  C368  1  0.29755712  0.94475819  0.06493330  1
  H  H369  1  0.42087333  0.86744623  0.66164664  1
  C  C370  1  0.26470127  0.92845539  0.96224020  1
  H  H371  1  0.36651454  0.93691257  0.81061701  1
  H  H372  1  0.49236832  0.80343988  0.55330093  1
  H  H373  1  0.39316685  0.94586874  0.63371710  1
  C  C374  1  0.26960863  0.91722008  0.35629596  1
  H  H375  1  0.28753715  0.83693149  0.16313696  1
  O  O376  1  0.37657916  0.83772866  0.78978675  1
  C  C377  1  0.46608830  0.82281486  0.77310065  1
  H  H378  1  0.35207890  0.81205851  0.07821273  1
  O  O379  1  0.28841277  0.95625807  0.25041974  1
  H  H380  1  0.41243077  0.92312468  0.35176491  1
  C  C381  1  0.40093381  0.87903973  0.74975762  1
  C  C382  1  0.40759284  0.85331984  0.33878744  1
  H  H383  1  0.33737837  0.93366971  0.37449478  1
  H  H384  1  0.41595779  0.88253768  0.85966051  1
  H  H385  1  0.35166496  0.90679263  0.63269543  1
  C  C386  1  0.28917212  0.81279996  0.07000752  1
  C  C387  1  0.39073304  0.89586887  0.35705621  1
  C  C388  1  0.32545015  0.79789867  0.02379843  1
  H  H389  1  0.45237293  0.83804587  0.01116331  1
  O  O390  1  0.45896489  0.79680642  0.30730595  1
  C  C391  1  0.43420960  0.78879667  0.78839090  1
  C  C392  1  0.25574730  0.79654565  0.99410812  1
  H  H393  1  0.27465392  0.91614132  0.84606812  1
  O  O394  1  0.45095574  0.98795221  0.93345379  1
  H  H395  1  0.25033752  0.89847274  0.02049180  1
  C  C396  1  0.37309357  0.76123609  0.84711073  1
  H  H397  1  0.49488210  0.90388394  0.01465491  1
  C  C398  1  0.49563643  0.88374558  0.91638498  1
  C  C399  1  0.25791010  0.99161299  0.26595897  1
  H  H400  1  0.37813253  0.99587496  0.91742227  1
  H  H401  1  0.71514481  0.05095397  0.71468554  1
  C  C402  1  0.69606276  0.04452288  0.82234045  1
  Cu  Cu403  1  0.53671642  0.01244197  0.87606478  1
  H  H404  1  0.53558711  0.17406294  0.69333166  1
  C  C405  1  0.62716741  0.13164032  0.84502636  1
  C  C406  1  0.69950358  0.24387130  0.32176633  1
  H  H407  1  0.68142086  0.15224067  0.43610526  1
  C  C408  1  0.69645845  0.09853241  0.06152475  1
  C  C409  1  0.73568767  0.03689720  0.46947308  1
  C  C410  1  0.61874655  0.10538436  0.70808813  1
  C  C411  1  0.63755762  0.11309762  0.56469654  1
  C  C412  1  0.65533022  0.16272314  0.83029080  1
  H  H413  1  0.53180653  0.19343932  0.97497975  1
  O  O414  1  0.57231877  0.06476826  0.84143665  1
  C  C415  1  0.70181839  0.21028134  0.66469754  1
  H  H416  1  0.60969512  0.12492526  0.94813021  1
  C  C417  1  0.58975622  0.07062356  0.71321054  1
  O  O418  1  0.69698101  0.12338783  0.19008847  1
  H  H419  1  0.66226825  0.18076331  0.93926988  1
  C  C420  1  0.67478292  0.17122174  0.68481444  1
  C  C421  1  0.66653692  0.14662092  0.55014299  1
  C  C422  1  0.73883718  0.19392314  0.65048744  1
  H  H423  1  0.63238284  0.09142509  0.46199817  1
  O  O424  1  0.58368469  0.04691808  0.59235173  1
  C  C425  1  0.69681652  0.07402578  0.94943652  1
  C  C426  1  0.63445338  0.24904845  0.21893950  1
  C  C427  1  0.55705660  0.19900498  0.74732506  1
  H  H428  1  0.70452964  0.00312336  0.11910250  1
  H  H429  1  0.74383401  0.15803032  0.64647130  1
  H  H430  1  0.73000944  0.05382158  0.35627290  1
  C  C431  1  0.54580544  0.22047075  0.90405886  1
  H  H432  1  0.69703151  0.15427568  0.13736248  1
  H  H433  1  0.56210567  0.22532302  0.65698392  1
  O  O434  1  0.57528008  0.23909567  0.01067728  1
  C  C435  1  0.71480573  0.24208148  0.16884157  1
  H  H436  1  0.71854571  0.23517261  0.41735183  1
  C  C437  1  0.71116219  0.01091864  0.54862089  1
  H  H438  1  0.58509450  0.17842917  0.77152246  1
  H  H439  1  0.69805350  0.24561386  0.91394634  1
  C  C440  1  0.69018319  0.24960263  0.03679085  1
  O  O441  1  0.67971175  0.00723005  0.79945768  1
  H  H442  1  0.65094989  0.24360724  0.47195126  1
  C  C443  1  0.66030489  0.24677825  0.35412322  1
  H  H444  1  0.52176301  0.24227440  0.88787217  1
  H  H445  1  0.64362986  0.35756286  0.14586608  1
  C  C446  1  0.70974901  0.40257045  0.76800028  1
  C  C447  1  0.54929141  0.27757719  0.43705708  1
  H  H448  1  0.67514255  0.33917988  0.98689405  1
  H  H449  1  0.66406646  0.32224840  0.80581017  1
  C  C450  1  0.69214524  0.39642622  0.48753210  1
  H  H451  1  0.67889000  0.41189602  0.38721714  1
  H  H452  1  0.70236188  0.33130962  0.38080293  1
  C  C453  1  0.71598908  0.33282622  0.63076601  1
  O  O454  1  0.68925707  0.43607952  0.13015144  1
  C  C455  1  0.51539798  0.27516185  0.36506060  1
  C  C456  1  0.72017258  0.28357477  0.64076439  1
  H  H457  1  0.57149943  0.47017169  0.06461306  1
  O  O458  1  0.65231563  0.26490138  0.70268493  1
  H  H459  1  0.59240303  0.30678622  0.85412394  1
  C  C460  1  0.71228940  0.46814297  0.09995051  1
  H  H461  1  0.64893507  0.33183735  0.60923535  1
  C  C462  1  0.67382469  0.46298190  0.63749514  1
  C  C463  1  0.67441983  0.35065375  0.11285057  1
  O  O464  1  0.66046254  0.48042063  0.51473571  1
  C  C465  1  0.63998480  0.31536702  0.72138362  1
  C  C466  1  0.70479983  0.35287024  0.48302729  1
  H  H467  1  0.52014478  0.45019178  0.60870422  1
  C  C468  1  0.69347456  0.41950106  0.62802236  1
  C  C469  1  0.72172119  0.35824762  0.77318930  1
  H  H470  1  0.73495578  0.34047618  0.87368203  1
  H  H471  1  0.57814464  0.34051885  0.68403419  1
  H  H472  1  0.64390662  0.46170924  0.00049401  1
  H  H473  1  0.60344545  0.36506207  0.83787819  1
  H  H474  1  0.56726693  0.47155493  0.58088013  1
  H  H475  1  0.68552209  0.32174710  0.17727875  1
  C  C476  1  0.60025141  0.33374759  0.77177696  1
  C  C477  1  0.58889348  0.27287929  0.42446736  1
  C  C478  1  0.70423910  0.38843736  0.12203482  1
  H  H479  1  0.71745147  0.42501284  0.86646631  1
  C  C480  1  0.68778005  0.25524037  0.67138557  1
  H  H481  1  0.72518129  0.38530636  0.22088583  1
  C  C482  1  0.53640687  0.48059879  0.55650699  1
  H  H483  1  0.61249322  0.26976154  0.51537220  1
  H  H484  1  0.72443772  0.39042210  0.01884329  1
  O  O485  1  0.67727930  0.48299395  0.76609369  1
  C  C486  1  0.59456116  0.25894604  0.26491337  1
  C  C487  1  0.52579389  0.25863973  0.20709073  1
  C  C488  1  0.63128544  0.49166715  0.05792297  1
  C  C489  1  0.59369939  0.49642299  0.09247244  1
  H  H490  1  0.53191340  0.47719002  0.42858657  1
  H  H491  1  0.63109792  0.25276609  0.96200648  1
  C  C492  1  0.65139084  0.25107608  0.06616554  1
  C  C493  1  0.56407374  0.25452463  0.15212122  1
  O  O494  1  0.51595673  0.58428988  0.23458648  1
  C  C495  1  0.60452557  0.57436439  0.17320654  1
  H  H496  1  0.59472251  0.60850475  0.21004226  1
  H  H497  1  0.71130761  0.58331190  0.04700698  1
  O  O498  1  0.51688286  0.50868914  0.17964316  1
  H  H499  1  0.54825459  0.58167959  0.95134231  1
  C  C500  1  0.65944174  0.58577573  0.65053821  1
  C  C501  1  0.55551304  0.62478858  0.57570029  1
  H  H502  1  0.53156185  0.53041660  0.74758473  1
  H  H503  1  0.61060478  0.62757324  0.44234419  1
  C  C504  1  0.60116218  0.58887355  0.81499388  1
  C  C505  1  0.59488935  0.61750677  0.55162549  1
  C  C506  1  0.61786653  0.59699653  0.66673932  1
  O  O507  1  0.67579438  0.58383199  0.51583311  1
  C  C508  1  0.53792003  0.61053077  0.72166925  1
  O  O509  1  0.67858441  0.57719364  0.77142525  1
  H  H510  1  0.61783300  0.57179282  0.90898770  1
  C  C511  1  0.64367226  0.56759717  0.13972138  1
  H  H512  1  0.54120277  0.59801196  0.24780063  1
  C  C513  1  0.56174406  0.59401612  0.84255145  1
  C  C514  1  0.52228563  0.52645688  0.61883920  1
  H  H515  1  0.66348060  0.59502142  0.15868491  1
  H  H516  1  0.53662396  0.63750329  0.48139322  1
  C  C517  1  0.57970424  0.53720741  0.14883911  1
  C  C518  1  0.70256487  0.51373736  0.08598867  1
  Cu  Cu519  1  0.71113814  0.52696764  0.79594650  1
  H  H520  1  0.66266820  0.72490186  0.85514672  1
  O  O521  1  0.58684038  0.71818087  0.88753993  1
  C  C522  1  0.59206187  0.74460692  0.98235086  1
  C  C523  1  0.66402541  0.74878866  0.94996766  1
  H  H524  1  0.53868134  0.69656552  0.10253166  1
  H  H525  1  0.50332990  0.68010093  0.76197533  1
  C  C526  1  0.66014044  0.52508456  0.09684931  1
  H  H527  1  0.73124727  0.72029076  0.54117017  1
  C  C528  1  0.72580532  0.55087899  0.05181947  1
  C  C529  1  0.53663019  0.54170249  0.18275728  1
  Cu  Cu530  1  0.68850103  0.52764464  0.41674062  1
  C  C531  1  0.53350258  0.73138633  0.13412019  1
  H  H532  1  0.53270121  0.55592390  0.55753620  1
  H  H533  1  0.72830508  0.74699510  0.95151792  1
  O  O534  1  0.74115157  0.52374213  0.42900104  1
  O  O535  1  0.58929869  0.96952180  0.25643071  1
  C  C536  1  0.74033099  0.81223428  0.18655219  1
  C  C537  1  0.68897978  0.97079243  0.12460634  1
  C  C538  1  0.51990654  0.85863758  0.65500503  1
  O  O539  1  0.70778500  0.79590017  0.51722252  1
  C  C540  1  0.72778735  0.80347258  0.62609948  1
  O  O541  1  0.73253858  0.84291554  0.69434262  1
  O  O542  1  0.54358211  0.95457210  0.89170187  1
  O  O543  1  0.67945739  0.94643135  0.58181484  1
  H  H544  1  0.73184264  0.94418383  0.27726212  1
  H  H545  1  0.60237383  0.81003336  0.18672795  1
  H  H546  1  0.51056111  0.80584228  0.18887661  1
  C  C547  1  0.66751489  0.80797796  0.20265316  1
  C  C548  1  0.74222878  0.85948975  0.20655682  1
  C  C549  1  0.72066520  0.93600225  0.16580437  1
  C  C550  1  0.63045187  0.79529385  0.15259739  1
  O  O551  1  0.56596337  0.93307548  0.65940331  1
  Cu  Cu552  1  0.70685988  0.89546262  0.64278779  1
  C  C553  1  0.54332964  0.92685490  0.77529042  1
  C  C554  1  0.51876566  0.88883881  0.78111768  1
  C  C555  1  0.70302134  0.78993636  0.13338358  1
  O  O556  1  0.55581619  0.76048872  0.08195487  1
  O  O557  1  0.71255041  0.88596280  0.17071707  1
  H  H558  1  0.67076117  0.83078921  0.30077542  1
  H  H559  1  0.66437351  0.97018334  0.20873548  1
  H  H560  1  0.74530555  0.93513105  0.07919287  1
  H  H561  1  0.54012145  0.86847187  0.56330140  1
  C  C562  1  0.58788660  0.93597238  0.29133292  1
  C  C563  1  0.68966547  0.98720189  0.61760112  1
  H  H564  1  0.67491818  0.96438424  0.00758884  1
  C  C565  1  0.62932968  0.76560836  0.02465103  1
  C  C566  1  0.70043964  0.75971365  0.00450368  1
  Cu  Cu567  1  0.57321962  0.99002352  0.62545748  1
  C  C568  1  0.85575108  0.15024462  0.60850727  1
  C  C569  1  0.93713943  0.11596636  0.56152409  1
  O  O570  1  0.85569011  0.17171724  0.21859809  1
  H  H571  1  0.89653525  0.08934467  0.39227759  1
  C  C572  1  0.81216384  0.21460376  0.63003158  1
  C  C573  1  0.93491423  0.16626012  0.21377109  1
  H  H574  1  0.79458936  0.14388319  0.64965829  1
  H  H575  1  0.98768979  0.01557574  0.13299904  1
  H  H576  1  0.91976876  0.10599323  0.66129036  1
  O  O577  1  0.84771497  0.17327705  0.96439141  1
  H  H578  1  0.94396367  0.09436706  0.31887196  1
  C  C579  1  0.80198857  0.06359611  0.47108555  1
  C  C580  1  0.97428316  0.15684684  0.20373017  1
  C  C581  1  0.86905824  0.17087940  0.08378211  1
  C  C582  1  0.84889460  0.10654457  0.58504756  1
  C  C583  1  0.92840630  0.16384637  0.93043092  1
  C  C584  1  0.83972304  0.06370076  0.55554093  1
  C  C585  1  0.88020228  0.22415969  0.59393313  1
  H  H586  1  0.91049666  0.16925690  0.82002492  1
  H  H587  1  0.96843472  0.11513179  0.57937853  1
  C  C588  1  0.99499086  0.06490991  0.72127127  1
  C  C589  1  0.89055299  0.18011816  0.58605109  1
  C  C590  1  0.84375451  0.24396870  0.61038280  1
  O  O591  1  0.92528064  0.16808738  0.56685960  1
  H  H592  1  0.92194241  0.16529664  0.33508907  1
  C  C593  1  0.76814803  0.22702567  0.62801907  1
  C  C594  1  0.91183444  0.16915081  0.07816667  1
  H  H595  1  0.94064907  0.06584531  0.85317311  1
  H  H596  1  0.85169579  0.03489366  0.61767240  1
  C  C597  1  0.92692781  0.08517143  0.42437975  1
  C  C598  1  0.96848133  0.15727268  0.91445482  1
  H  H599  1  0.98190564  0.15528660  0.79984034  1
  O  O600  1  0.76910457  0.22968401  0.01423460  1
  O  O601  1  0.77659008  0.22375967  0.26868526  1
  C  C602  1  0.81764294  0.16959222  0.63081002  1
  C  C603  1  0.96112909  0.04929597  0.76824601  1
  H  H604  1  0.79636925  0.08183553  0.36426933  1
  Cu  Cu605  1  0.82161528  0.22547475  0.91520167  1
  Cu  Cu606  1  0.82979564  0.22621744  0.29936547  1
  H  H607  1  0.93384806  0.22762863  0.34314770  1
  C  C608  1  0.77316655  0.03905486  0.53844522  1
  H  H609  1  0.93392321  0.04976234  0.45828869  1
  H  H610  1  0.90163219  0.02214455  0.94038018  1
  C  C611  1  0.99067951  0.15467287  0.05304728  1
  C  C612  1  0.75550320  0.23143066  0.14999579  1
  H  H613  1  0.99420934  0.15780835  0.30465697  1
  H  H614  1  0.78263397  0.01721701  0.63870445  1
  C  C615  1  0.95424260  0.00855847  0.67755030  1
  C  C616  1  0.89034343  0.00483846  0.83889920  1
  C  C617  1  0.80382680  0.36437025  0.24164053  1
  C  C618  1  0.92629686  0.37748965  0.96653812  1
  H  H619  1  0.89410467  0.37284000  0.99530281  1
  C  C620  1  0.91178149  0.25814346  0.56321652  1
  Cu  Cu621  1  0.93923443  0.45515636  0.54805033  1
  H  H622  1  0.78169829  0.29586685  0.56359256  1
  C  C623  1  0.95695654  0.33206065  0.48817356  1
  O  O624  1  0.84180242  0.28009870  0.23676203  1
  C  C625  1  0.95747289  0.29455570  0.39013005  1
  H  H626  1  0.90185173  0.29475355  0.78832492  1
  O  O627  1  0.91365933  0.47359586  0.71868546  1
  C  C628  1  0.93509134  0.41613052  0.88635454  1
  H  H629  1  0.81172931  0.35343887  0.35336467  1
  C  C630  1  0.78853142  0.40079398  0.94263015  1
  O  O631  1  0.97353742  0.40821047  0.52560064  1
  H  H632  1  0.78380457  0.41405278  0.82492626  1
  C  C633  1  0.99417633  0.36015060  0.97727882  1
  H  H634  1  0.93515135  0.36412180  0.70250426  1
  H  H635  1  0.97198903  0.29763479  0.27298801  1
  H  H636  1  0.81569221  0.34030947  0.85335223  1
  C  C637  1  0.97545738  0.37276172  0.44518312  1
  C  C638  1  0.91501402  0.29553828  0.66743847  1
  O  O639  1  0.87006380  0.44409176  0.88483576  1
  O  O640  1  0.83932762  0.27931273  0.97953559  1
  C  C641  1  0.80606388  0.35902765  0.95618676  1
  C  C642  1  0.93567103  0.33245682  0.63136520  1
  C  C643  1  0.77674238  0.42390220  0.08285766  1
  C  C644  1  0.78835207  0.40586328  0.23475922  1
  C  C645  1  0.81293093  0.34064935  0.10597647  1
  C  C646  1  0.83145205  0.29670737  0.11241589  1
  C  C647  1  0.75401260  0.46779009  0.07762176  1
  C  C648  1  0.90321368  0.44738055  0.83591127  1
  H  H649  1  0.95011688  0.32247717  0.09826702  1
  C  C650  1  0.95501612  0.35078705  0.02571211  1
  H  H651  1  0.78356111  0.42662144  0.33887238  1
  C  C652  1  0.97314151  0.42860954  0.84288355  1
  H  H653  1  0.97992624  0.45592070  0.77113426  1
  H  H654  1  0.84114925  0.27858298  0.60014657  1
  C  C655  1  0.93482455  0.25810083  0.42313244  1
  C  C656  1  0.75854717  0.27086224  0.59954487  1
  O  O657  1  0.96491403  0.49856755  0.42932405  1
  O  O658  1  0.98929900  0.37389541  0.30767043  1
  C  C659  1  0.99854505  0.49583292  0.36888476  1
  H  H660  1  0.98969015  0.25067555  0.62025079  1
  H  H661  1  0.81104226  0.49487823  0.04314211  1
  O  O662  1  0.87825327  0.68374452  0.91290095  1
  C  C663  1  0.82759346  0.72317647  0.34576598  1
  H  H664  1  0.91750965  0.53767477  0.91155770  1
  C  C665  1  0.90351883  0.60295845  0.02446528  1
  C  C666  1  0.83424372  0.65041896  0.43512133  1
  H  H667  1  0.81041105  0.58010749  0.74603911  1
  C  C668  1  0.76078698  0.54299078  0.53809454  1
  H  H669  1  0.84588992  0.64898840  0.69324413  1
  C  C670  1  0.96141595  0.63821493  0.14117963  1
  C  C671  1  0.96690984  0.56791662  0.01668055  1
  C  C672  1  0.83189640  0.63300373  0.59132201  1
  C  C673  1  0.80907375  0.65973085  0.92106878  1
  C  C674  1  0.94043778  0.58740052  0.48496032  1
  H  H675  1  0.96225888  0.59827797  0.57483238  1
  C  C676  1  0.79360641  0.58454633  0.00149465  1
  C  C677  1  0.96025666  0.67654929  0.79092013  1
  O  O678  1  0.92317910  0.67190869  0.41475267  1
  C  C679  1  0.80932633  0.59666096  0.62803750  1
  C  C680  1  0.92838841  0.56656469  0.98228669  1
  C  C681  1  0.89615716  0.70017924  0.37925482  1
  H  H682  1  0.79820283  0.71099348  0.36981774  1
  C  C683  1  0.85501068  0.69111227  0.38018584  1
  C  C684  1  0.81070335  0.63191468  0.31296279  1
  C  C685  1  0.92142918  0.63772756  0.11227273  1
  O  O686  1  0.75727085  0.52876639  0.67628484  1
  C  C687  1  0.98655606  0.60302608  0.08956309  1
  H  H688  1  0.97322980  0.66779866  0.19779644  1
  H  H689  1  0.76913072  0.57920139  0.25421138  1
  C  C690  1  0.76608700  0.54627168  0.03333311  1
  C  C691  1  0.85006661  0.65544512  0.94190128  1
  C  C692  1  0.87112966  0.72967804  0.85340990  1
  C  C693  1  0.86076956  0.61273690  0.99771705  1
  H  H694  1  0.84594241  0.54731885  0.06344785  1
  H  H695  1  0.93650688  0.65682089  0.83830979  1
  H  H696  1  0.88926737  0.61151581  0.37001789  1
  C  C697  1  0.96008293  0.72280919  0.80105601  1
  C  C698  1  0.90866572  0.62256076  0.46029053  1
  C  C699  1  0.83451789  0.57989441  0.02613564  1
  C  C700  1  0.78220845  0.62617969  0.95970135  1
  H  H701  1  0.81124930  0.64528544  0.19785557  1
  H  H702  1  0.90346226  0.66590320  0.16541889  1
  C  C703  1  0.78922101  0.69896857  0.84902442  1
  H  H704  1  0.95831605  0.58072931  0.38127189  1
  H  H705  1  0.89214008  0.63291414  0.56966418  1
  H  H706  1  0.92351501  0.55705970  0.52423357  1
  C  C707  1  0.78554332  0.58026732  0.50834340  1
  C  C708  1  0.78538314  0.59760040  0.34891344  1
  H  H709  1  0.96363020  0.71583224  0.51992995  1
  C  C710  1  0.99096940  0.65583451  0.70677325  1
  H  H711  1  0.98278755  0.53636002  0.98232528  1
  H  H712  1  0.75181414  0.63172128  0.93607671  1
  H  H713  1  0.82822144  0.72212847  0.66965721  1
  C  C714  1  0.97462076  0.73173142  0.41307251  1
  H  H715  1  0.76672651  0.65804781  0.65004789  1
  C  C716  1  0.77948285  0.50302401  0.06345439  1
  C  C717  1  0.90634052  0.74339025  0.32341977  1
  C  C718  1  0.79307275  0.74234637  0.90820421  1
  C  C719  1  0.76915904  0.69077766  0.70356417  1
  H  H720  1  0.87637146  0.72962002  0.60108333  1
  C  C721  1  0.75130913  0.72590683  0.63311508  1
  C  C722  1  0.85650733  0.74062981  0.68752316  1
  H  H723  1  0.76436286  0.74535699  0.20146485  1
  H  H724  1  0.90330444  0.73990457  0.86419493  1
  C  C725  1  0.96287255  0.76327358  0.81188879  1
  H  H726  1  0.78213148  0.81117159  0.87057905  1
  C  C727  1  0.76930489  0.78187409  0.21358913  1
  C  C728  1  0.94654382  0.87008934  0.49962809  1
  H  H729  1  0.79932228  0.97219550  0.43212738  1
  H  H730  1  0.80978545  0.93676602  0.05487551  1
  C  C731  1  0.96327823  0.91492923  0.56033483  1
  H  H732  1  0.84103481  0.85760949  0.29598611  1
  C  C733  1  0.78016735  0.87092568  0.24890830  1
  C  C734  1  0.96629987  0.77614623  0.18351543  1
  C  C735  1  0.75129564  0.76791849  0.70248359  1
  C  C736  1  0.79141471  0.91801870  0.28602944  1
  O  O737  1  0.95638981  0.88212000  0.90804734  1
  O  O738  1  0.78402923  0.92387611  0.57299053  1
  H  H739  1  0.96865893  0.84989113  0.43674794  1
  C  C740  1  0.80500188  0.79884334  0.26133863  1
  H  H741  1  0.91790227  0.97280001  0.45127937  1
  C  C742  1  0.96519987  0.84742658  0.85225640  1
  C  C743  1  0.97981192  0.99016325  0.56639423  1
  H  H744  1  0.88967658  0.80387692  0.22984667  1
  H  H745  1  0.99425595  0.80822072  0.54916312  1
  C  C746  1  0.79893394  0.95137933  0.71953461  1
  O  O747  1  0.77925106  0.95557386  0.82915798  1
  H  H748  1  0.93068840  0.84989101  0.59472783  1
  C  C749  1  0.81194588  0.84467738  0.27031322  1
  H  H750  1  0.92470803  0.87328947  0.40445309  1
  H  H751  1  0.94154345  0.92590168  0.65239101  1
  C  C752  1  0.83831952  0.96685063  0.70004945  1
  O  O753  1  0.97284743  0.95095565  0.46737280  1
  O  O754  1  0.94134011  0.81188872  0.84484204  1
  H  H755  1  0.94828985  0.79323171  0.09222897  1
  C  C756  1  0.79112110  0.93613038  0.43084001  1
  C  C757  1  0.80548693  0.95187902  0.17092822  1
  H  H758  1  0.98559208  0.78608603  0.77868064  1
  C  C759  1  0.83719539  0.76600902  0.29463266  1
  O  O760  1  0.81119975  0.99050134  0.17634854  1
  C  C761  1  0.87789064  0.77455068  0.27659455  1
  H  H762  1  0.84847894  0.93994125  0.46631350  1
  C  C763  1  0.77607577  0.77658359  0.82721134  1
  C  C764  1  0.89883896  0.97432224  0.56040568  1
  C  C765  1  0.86064537  0.95983490  0.56248529  1
  H  H766  1  0.99382171  0.91242597  0.62046571  1
  H  H767  1  0.84925980  0.77654407  0.66976108  1
  C  C768  1  0.91381272  0.99260909  0.70594569  1
  C  C769  1  0.85198939  0.99027424  0.83759841  1
  C  C770  1  0.94846916  0.75446867  0.31272744  1
  H  H771  1  0.80889761  0.75011565  0.01309227  1
  H  H772  1  0.85581068  0.75246684  0.93550850  1
  H  H773  1  0.83287844  0.99258281  0.93935503  1
