# generated using pymatgen
data_CuH15C22O5
_symmetry_space_group_name_H-M   'P 1'
_cell_length_a   28.98504933
_cell_length_b   31.12263266
_cell_length_c   9.89099818
_cell_angle_alpha   90.00000000
_cell_angle_beta   90.00000000
_cell_angle_gamma   90.00000000
_symmetry_Int_Tables_number   1
_chemical_formula_structural   CuH15C22O5
_chemical_formula_sum   'Cu18 H270 C396 O90'
_cell_volume   8922.58086562
_cell_formula_units_Z   18
loop_
 _symmetry_equiv_pos_site_id
 _symmetry_equiv_pos_as_xyz
  1  'x, y, z'
loop_
 _atom_site_type_symbol
 _atom_site_label
 _atom_site_symmetry_multiplicity
 _atom_site_fract_x
 _atom_site_fract_y
 _atom_site_fract_z
 _atom_site_occupancy
  H  H0  1  0.10872389  0.19832655  0.26502931  1
  C  C1  1  0.07798257  0.18904680  0.32414156  1
  H  H2  1  0.04942656  0.18330018  0.25682709  1
  H  H3  1  0.08824919  0.15974199  0.37909245  1
  C  C4  1  0.20689005  0.03152342  0.13882270  1
  C  C5  1  0.06756913  0.22410432  0.42859174  1
  C  C6  1  0.13408109  0.08947055  0.09801523  1
  H  H7  1  0.15985034  0.08537625  0.18147713  1
  H  H8  1  0.13119932  0.06069900  0.03374075  1
  H  H9  1  0.17599734  0.01854984  0.33376758  1
  C  C10  1  0.06502562  0.24747513  0.02085544  1
  H  H11  1  0.17759147  0.14054751  0.00261595  1
  O  O12  1  0.11485023  0.17151670  0.00367458  1
  C  C13  1  0.17066645  0.01505471  0.22129965  1
  O  O14  1  0.24243895  0.06191129  0.32762864  1
  C  C15  1  0.24508484  0.05360581  0.21049111  1
  H  H16  1  0.09992163  0.23815817  0.46638463  1
  H  H17  1  0.04871941  0.24862280  0.37807601  1
  H  H18  1  0.09951177  0.09426177  0.14767919  1
  C  C19  1  0.08490632  0.48666385  0.16202410  1
  H  H20  1  0.03004730  0.33509238  0.37331937  1
  Cu  Cu21  1  0.22158281  0.42004576  0.25959338  1
  H  H22  1  0.01256533  0.48684374  0.14282333  1
  C  C23  1  0.05004675  0.27548033  0.12663550  1
  C  C24  1  0.16727823  0.48558290  0.16942160  1
  C  C25  1  0.04466632  0.46899488  0.11735785  1
  C  C26  1  0.00940095  0.26688353  0.20024747  1
  C  C27  1  0.04350158  0.42730635  0.05376255  1
  C  C28  1  0.19072278  0.34321521  0.36589575  1
  O  O29  1  0.20535933  0.46454892  0.15832881  1
  C  C30  1  0.12541267  0.46255201  0.14063883  1
  C  C31  1  0.06309341  0.33031852  0.42272811  1
  C  C32  1  0.12549267  0.42021714  0.08613636  1
  H  H33  1  0.07126636  0.30217060  0.15452256  1
  O  O34  1  0.19000474  0.36885264  0.25873032  1
  C  C35  1  0.08511016  0.40223547  0.03625275  1
  H  H36  1  0.15924980  0.40553226  0.06419729  1
  C  C37  1  0.14555926  0.32968072  0.42984085  1
  O  O38  1  0.22532720  0.33254020  0.42331768  1
  C  C39  1  0.10400380  0.34488376  0.36821304  1
  H  H40  1  0.10575033  0.36225882  0.26623861  1
  H  H41  1  0.14875170  0.15853496  0.70209874  1
  C  C42  1  0.17532201  0.20875597  0.87324348  1
  C  C43  1  0.18029505  0.14162086  0.73789567  1
  O  O44  1  0.18299594  0.10369551  0.69867575  1
  C  C45  1  0.14439495  0.03829003  0.59876078  1
  C  C46  1  0.13891543  0.08397064  0.62876908  1
  C  C47  1  0.20437267  0.17079746  0.82122493  1
  H  H48  1  0.04818961  0.19528623  0.88498590  1
  H  H49  1  0.13398221  0.11568734  0.89201283  1
  H  H50  1  0.21771744  0.04405208  0.65093544  1
  C  C51  1  0.18836318  0.02219005  0.63340662  1
  O  O52  1  0.10703721  0.10612182  0.61362500  1
  C  C53  1  0.13499575  0.20507675  0.94999455  1
  H  H54  1  0.09073709  0.01985669  0.79161690  1
  H  H55  1  0.02824601  0.15770492  0.68868696  1
  H  H56  1  0.07071179  0.02494484  0.52783237  1
  C  C57  1  0.01518485  0.24039559  0.63016628  1
  C  C58  1  0.11352047  0.24689744  0.96546231  1
  C  C59  1  0.03535820  0.21469714  0.97084187  1
  O  O60  1  0.03214961  0.21199945  0.54806810  1
  H  H61  1  0.16232004  0.01234323  0.82683975  1
  C  C62  1  0.16880316  0.00925438  0.93745743  1
  C  C63  1  0.10490800  0.01256569  0.55955049  1
  H  H64  1  0.23316871  0.04542728  0.93507744  1
  C  C65  1  0.24738523  0.17555969  0.88650542  1
  H  H66  1  0.00021808  0.08043229  0.70660920  1
  H  H67  1  0.22734561  0.24479405  0.78358164  1
  C  C68  1  0.19534673  0.24809822  0.84005700  1
  C  C69  1  0.14133971  0.12738616  0.99615482  1
  C  C70  1  0.20734274  0.02799472  0.99689388  1
  H  H71  1  0.00780391  0.40248885  0.60201043  1
  C  C72  1  0.00707018  0.36955994  0.94286297  1
  C  C73  1  0.12904982  0.28708547  0.93237510  1
  C  C74  1  0.10684873  0.29521675  0.61473904  1
  H  H75  1  0.22956504  0.47588149  0.53316373  1
  C  C76  1  0.06637427  0.30444106  0.54214278  1
  C  C77  1  0.14768744  0.31029410  0.55739416  1
  H  H78  1  0.10203852  0.40443165  0.78103793  1
  C  C79  1  0.24634962  0.40772433  0.77992992  1
  C  C80  1  0.24509974  0.32866795  0.79711422  1
  H  H81  1  0.13645330  0.36843142  0.82236539  1
  C  C82  1  0.17292516  0.28736302  0.86699353  1
  C  C83  1  0.17467743  0.36705801  0.81638741  1
  H  H84  1  0.18162680  0.30561112  0.60661954  1
  H  H85  1  0.02243166  0.35142183  0.69058682  1
  C  C86  1  0.00755569  0.31834923  0.70366713  1
  H  H87  1  0.10707661  0.28156663  0.71518770  1
  C  C88  1  0.08568580  0.47199923  0.79252187  1
  C  C89  1  0.19841408  0.32705324  0.82234300  1
  H  H90  1  0.03981669  0.36059185  0.89950946  1
  C  C91  1  0.11647040  0.43712992  0.78399394  1
  H  H92  1  0.04760739  0.46787462  0.80194376  1
  C  C93  1  0.16629027  0.44297932  0.79092397  1
  H  H94  1  0.21647439  0.49574254  0.80962966  1
  C  C95  1  0.02688501  0.28561838  0.62543783  1
  C  C96  1  0.18056108  0.48680141  0.79410747  1
  C  C97  1  0.19718193  0.40510898  0.79285727  1
  H  H98  1  0.10607416  0.31428719  0.94524979  1
  H  H99  1  0.08363410  0.37011061  0.99023004  1
  Cu  Cu100  1  0.16949189  0.57614050  0.11277266  1
  C  C101  1  0.09132447  0.61052076  0.21782061  1
  C  C102  1  0.04150377  0.61343434  0.22330565  1
  O  O103  1  0.11675353  0.62758322  0.30170883  1
  Cu  Cu104  1  0.17714409  0.64149617  0.27244561  1
  H  H105  1  0.04791653  0.64414632  0.41416257  1
  O  O106  1  0.16581992  0.68918756  0.15570114  1
  C  C107  1  0.04161260  0.72897574  0.37052056  1
  H  H108  1  0.08669565  0.51942108  0.19847413  1
  O  O109  1  0.16712845  0.52438216  0.21181259  1
  O  O110  1  0.23463953  0.58070829  0.14390106  1
  O  O111  1  0.11017789  0.59042822  0.11459797  1
  C  C112  1  0.02276958  0.63283071  0.34306861  1
  C  C113  1  0.21529190  0.73893558  0.37741697  1
  H  H114  1  0.05361560  0.72608099  0.26242838  1
  C  C115  1  0.12274211  0.74317984  0.44089931  1
  C  C116  1  0.01510774  0.59347845  0.12071528  1
  O  O117  1  0.24326206  0.64258351  0.25527857  1
  H  H118  1  0.02970306  0.57672376  0.02924432  1
  H  H119  1  0.23211400  0.60870681  0.45689230  1
  C  C120  1  0.07246241  0.73934535  0.48012637  1
  C  C121  1  0.19632540  0.70425313  0.45569249  1
  C  C122  1  0.14754616  0.70420727  0.47340968  1
  C  C123  1  0.16452374  0.68646845  0.02754670  1
  O  O124  1  0.00532985  0.73314663  0.04715177  1
  C  C125  1  0.13726641  0.99017894  0.16915775  1
  H  H126  1  0.11204840  0.97378522  0.23509088  1
  H  H127  1  0.23793218  0.91921754  0.30213639  1
  H  H128  1  0.05083838  0.80121835  0.31928289  1
  C  C129  1  0.20781647  0.85608587  0.32271045  1
  H  H130  1  0.07027871  0.81522022  0.49569117  1
  C  C131  1  0.14010571  0.78272284  0.38942964  1
  H  H132  1  0.06466111  0.89232305  0.45283667  1
  C  C133  1  0.05113246  0.87249202  0.36656854  1
  C  C134  1  0.06942702  0.82650251  0.38306650  1
  H  H135  1  0.01256887  0.87255310  0.36182621  1
  H  H136  1  0.06660503  0.88479614  0.26788498  1
  O  O137  1  0.09560612  0.89821040  0.08848973  1
  C  C138  1  0.13554157  0.98729389  0.02283376  1
  C  C139  1  0.23832729  0.88636656  0.26757172  1
  H  H140  1  0.18302319  0.86554765  0.40053309  1
  C  C141  1  0.18663943  0.77332644  0.35257543  1
  C  C142  1  0.00781271  0.85427684  0.09609622  1
  H  H143  1  0.15658930  0.76851913  0.11228743  1
  H  H144  1  0.15536459  0.86959064  0.14209095  1
  H  H145  1  0.15696911  0.92514685  0.15627773  1
  C  C146  1  0.20959478  0.81093732  0.28139617  1
  C  C147  1  0.14938888  0.89914103  0.08531667  1
  O  O148  1  0.12053316  0.82025803  0.36376905  1
  H  H149  1  0.04534908  0.84778904  0.09848743  1
  C  C150  1  0.24050836  0.79884951  0.17651708  1
  H  H151  1  0.24361798  0.76374607  0.16470975  1
  C  C152  1  0.07332995  0.92837426  0.01874919  1
  H  H153  1  0.17487212  0.68758752  0.76707736  1
  C  C154  1  0.07342579  0.55449001  0.78659889  1
  O  O155  1  0.03200543  0.55436857  0.78368937  1
  C  C156  1  0.16919937  0.72046064  0.80571320  1
  C  C157  1  0.16407020  0.72601756  0.94606950  1
  O  O158  1  0.09743409  0.59093260  0.79383354  1
  H  H159  1  0.16256268  0.55330934  0.80094215  1
  Cu  Cu160  1  0.11391409  0.61668940  0.94302074  1
  C  C161  1  0.22992284  0.67368205  0.53256493  1
  C  C162  1  0.01276801  0.73537392  0.64319243  1
  H  H163  1  0.22328397  0.55228583  0.64709794  1
  C  C164  1  0.05875949  0.74373676  0.61732732  1
  O  O165  1  0.16441722  0.64977137  0.97214909  1
  H  H166  1  0.08231137  0.74898522  0.70144747  1
  C  C167  1  0.15007171  0.52143077  0.78931224  1
  C  C168  1  0.24329918  0.62948815  0.53343076  1
  C  C169  1  0.10210185  0.51447331  0.78670072  1
  H  H170  1  0.13026014  0.67697032  0.51865862  1
  H  H171  1  0.00252105  0.73871211  0.75349018  1
  C  C172  1  0.07435325  0.99342977  0.85110764  1
  C  C173  1  0.21807971  0.90233245  0.54545685  1
  C  C174  1  0.00101846  0.95293519  0.89424187  1
  C  C175  1  0.07314170  0.84187843  0.76970477  1
  H  H176  1  0.17383191  0.75157322  0.60795484  1
  C  C177  1  0.17132884  0.75465828  0.71893238  1
  C  C178  1  0.24134668  0.86324665  0.56677170  1
  H  H179  1  0.01404722  0.82921426  0.63302903  1
  H  H180  1  0.23817098  0.80026035  0.65922619  1
  H  H181  1  0.21270506  0.88709513  0.95367621  1
  C  C182  1  0.02659321  0.92383182  0.98319085  1
  C  C183  1  0.17340059  0.90657168  0.59960313  1
  C  C184  1  0.14489744  0.87519252  0.66799155  1
  H  H185  1  0.16415772  0.90509581  0.86253582  1
  H  H186  1  0.22909035  0.96671147  0.66536301  1
  C  C187  1  0.09520085  0.96669187  0.95927061  1
  C  C188  1  0.02165543  0.83569105  0.74144841  1
  C  C189  1  0.15835810  0.95162930  0.58208704  1
  H  H190  1  0.00766786  0.80723489  0.80758831  1
  H  H191  1  0.08036623  0.83831162  0.87959217  1
  H  H192  1  0.09637333  0.82107019  0.70970631  1
  C  C193  1  0.11198387  0.96789120  0.56478326  1
  H  H194  1  0.15686706  0.83638357  0.96292891  1
  C  C195  1  0.02966054  0.98201892  0.83542466  1
  O  O196  1  0.10263304  0.88173951  0.70086368  1
  H  H197  1  0.00157718  0.86311061  0.77836465  1
  C  C198  1  0.16267883  0.79694185  0.77306346  1
  H  H199  1  0.08020213  0.94843012  0.56355952  1
  C  C200  1  0.17371856  0.83636451  0.68628548  1
  C  C201  1  0.15780626  0.80435034  0.91501274  1
  C  C202  1  0.19480559  0.97868698  0.63454111  1
  C  C203  1  0.21799420  0.82951997  0.63575372  1
  H  H204  1  0.23657005  0.92946897  0.50145781  1
  C  C205  1  0.15699302  0.76743840  0.99881145  1
  C  C206  1  0.18132186  0.90789521  0.96284150  1
  H  H207  1  0.19197868  0.94288584  0.96372500  1
  C  C208  1  0.37929437  0.17265868  0.22880984  1
  O  O209  1  0.37258131  0.13907411  0.14829924  1
  O  O210  1  0.34968651  0.19945675  0.23316781  1
  C  C211  1  0.42630837  0.17433009  0.29787019  1
  Cu  Cu212  1  0.33681960  0.09565511  0.19663060  1
  C  C213  1  0.41162696  0.04529409  0.25578589  1
  O  O214  1  0.27995985  0.06923432  0.14059553  1
  O  O215  1  0.41616566  0.03528214  0.13352696  1
  O  O216  1  0.37788223  0.06534012  0.30094963  1
  H  H217  1  0.44936453  0.11377652  0.22114873  1
  C  C218  1  0.45979107  0.14148000  0.28945288  1
  C  C219  1  0.44908904  0.02878077  0.34343318  1
  C  C220  1  0.43664227  0.21414211  0.36455150  1
  C  C221  1  0.47588277  0.21570237  0.44322308  1
  H  H222  1  0.40876739  0.23812991  0.36732449  1
  C  C223  1  0.46372081  0.02981179  0.45742912  1
  C  C224  1  0.42953540  0.22959860  0.02123013  1
  H  H225  1  0.39163945  0.23467431  0.01420871  1
  C  C226  1  0.45050965  0.18906840  0.00204928  1
  C  C227  1  0.49873097  0.18273611  0.00167881  1
  H  H228  1  0.39629074  0.44652839  0.49933129  1
  C  C229  1  0.30029875  0.49363495  0.46618713  1
  H  H230  1  0.48592205  0.45388571  0.34002448  1
  C  C231  1  0.42450968  0.43157592  0.44157120  1
  H  H232  1  0.46936834  0.48644362  0.47909482  1
  O  O233  1  0.26850060  0.42652894  0.38404327  1
  H  H234  1  0.41087244  0.41195532  0.35345431  1
  C  C235  1  0.30198025  0.45512779  0.37149174  1
  O  O236  1  0.45866922  0.33977457  0.06699026  1
  C  C237  1  0.43291887  0.30915074  0.06770777  1
  O  O238  1  0.39214715  0.31362232  0.08812163  1
  C  C239  1  0.45573021  0.46883815  0.39298062  1
  H  H240  1  0.38766273  0.34705380  0.43715016  1
  C  C241  1  0.45852874  0.26510280  0.04388840  1
  O  O242  1  0.33191537  0.45290019  0.29159129  1
  O  O243  1  0.46421808  0.33261753  0.48164188  1
  H  H244  1  0.30581234  0.37356245  0.49084329  1
  C  C245  1  0.32806948  0.08887329  0.79459127  1
  C  C246  1  0.28544037  0.11170878  0.80640420  1
  C  C247  1  0.42441436  0.13713742  0.63303816  1
  C  C248  1  0.31789987  0.05344794  0.70189250  1
  H  H249  1  0.43972536  0.14530596  0.84561638  1
  C  C250  1  0.46049960  0.14227471  0.74790813  1
  C  C251  1  0.28767736  0.14996148  0.87857504  1
  O  O252  1  0.36439732  0.09921962  0.86654238  1
  H  H253  1  0.47420027  0.02785447  0.78383044  1
  H  H254  1  0.31849990  0.15989231  0.93225657  1
  H  H255  1  0.44507035  0.13216134  0.53625945  1
  O  O256  1  0.49141895  0.10397161  0.77634981  1
  H  H257  1  0.48352777  0.17238994  0.73808832  1
  H  H258  1  0.40332274  0.16789131  0.61207730  1
  H  H259  1  0.39868777  0.10933889  0.64369051  1
  H  H260  1  0.25088371  0.20402829  0.95583009  1
  O  O261  1  0.30969479  0.02773546  0.61960638  1
  H  H262  1  0.25683368  0.10783232  0.74074760  1
  H  H263  1  0.45303962  0.04613524  0.55579228  1
  H  H264  1  0.48270674  0.24314978  0.51022031  1
  H  H265  1  0.42881062  0.16189239  0.98400063  1
  Cu  Cu266  1  0.38956864  0.06961094  0.98867189  1
  H  H267  1  0.38308411  0.49012110  0.71893711  1
  C  C268  1  0.37372162  0.34758023  0.54051239  1
  H  H269  1  0.44155187  0.40790119  0.51438140  1
  C  C270  1  0.32942975  0.36030971  0.57461753  1
  C  C271  1  0.31611967  0.35715926  0.71310648  1
  C  C272  1  0.34753269  0.34362732  0.81733673  1
  H  H273  1  0.33891148  0.34569625  0.92271732  1
  H  H274  1  0.47693169  0.42213058  0.89825833  1
  O  O275  1  0.44589761  0.49120064  0.76749730  1
  H  H276  1  0.41841107  0.32796429  0.86084626  1
  O  O277  1  0.48945866  0.32220357  0.69954763  1
  C  C278  1  0.39214700  0.33503723  0.78512214  1
  C  C279  1  0.40527743  0.33826763  0.64617348  1
  H  H280  1  0.33279973  0.42462432  0.81739308  1
  O  O281  1  0.26679454  0.44597628  0.76584185  1
  C  C282  1  0.26918226  0.36691245  0.76689941  1
  C  C283  1  0.31944742  0.44589668  0.73596363  1
  H  H284  1  0.26274820  0.29865650  0.79413534  1
  C  C285  1  0.45277839  0.33107581  0.59392629  1
  H  H286  1  0.31999903  0.42776225  0.64251957  1
  C  C287  1  0.34319734  0.49034228  0.73842462  1
  C  C288  1  0.40337893  0.58438992  0.20781980  1
  C  C289  1  0.37361745  0.55461550  0.14454743  1
  C  C290  1  0.32767823  0.56335757  0.14176432  1
  C  C291  1  0.45506172  0.57747599  0.22310491  1
  H  H292  1  0.46237966  0.64288527  0.13537677  1
  C  C293  1  0.46867336  0.53813063  0.28966017  1
  C  C294  1  0.47930025  0.61399477  0.18067455  1
  C  C295  1  0.30845883  0.60138892  0.20500315  1
  C  C296  1  0.33741042  0.63035793  0.27366851  1
  C  C297  1  0.38361053  0.62096227  0.27238668  1
  H  H298  1  0.40592433  0.64179727  0.32998855  1
  H  H299  1  0.32266111  0.65698842  0.33957201  1
  H  H300  1  0.38883356  0.52269956  0.10928350  1
  C  C301  1  0.43828235  0.72156732  0.34996378  1
  C  C302  1  0.33782812  0.52247649  0.44626571  1
  H  H303  1  0.36575817  0.51376585  0.37572526  1
  H  H304  1  0.30502992  0.53864856  0.09797667  1
  H  H305  1  0.25354483  0.73600318  0.35522731  1
  C  C306  1  0.25974960  0.60934981  0.20086576  1
  O  O307  1  0.43832175  0.50959049  0.32916599  1
  H  H308  1  0.41129754  0.65865764  0.06034507  1
  C  C309  1  0.42155049  0.68995595  0.43809971  1
  H  H310  1  0.47305594  0.72050873  0.31220038  1
  C  C311  1  0.34588092  0.72535880  0.46327849  1
  C  C312  1  0.37448588  0.69015686  0.48871532  1
  O  O313  1  0.49382441  0.65907126  0.44202868  1
  C  C314  1  0.45299130  0.65812711  0.49107043  1
  H  H315  1  0.35989603  0.58665607  0.49427449  1
  H  H316  1  0.33591221  0.62177435  0.00286487  1
  C  C317  1  0.37797385  0.84346209  0.42275635  1
  O  O318  1  0.42738279  0.84776162  0.37243800  1
  C  C319  1  0.40911709  0.75776912  0.33301032  1
  C  C320  1  0.43832390  0.88663014  0.38111537  1
  C  C321  1  0.35006268  0.80802334  0.43066857  1
  H  H322  1  0.29712421  0.82130506  0.05050007  1
  H  H323  1  0.27974862  0.78653204  0.47569360  1
  C  C324  1  0.40979485  0.95815921  0.44036367  1
  C  C325  1  0.45130133  0.98045589  0.40302034  1
  H  H326  1  0.47364611  0.89811470  0.36121020  1
  C  C327  1  0.30336746  0.81345493  0.46890454  1
  C  C328  1  0.27214798  0.87123391  0.17698015  1
  H  H329  1  0.47122168  0.85671002  0.18736381  1
  C  C330  1  0.36506153  0.76293379  0.40012046  1
  C  C331  1  0.40280441  0.91413616  0.42835605  1
  H  H332  1  0.42043570  0.78339328  0.26548109  1
  C  C333  1  0.30707856  0.89991312  0.10929700  1
  C  C334  1  0.27342731  0.82849551  0.13025758  1
  O  O335  1  0.31155373  0.93709980  0.13238008  1
  H  H336  1  0.49773347  0.78763389  0.29232672  1
  C  C337  1  0.36449400  0.88560146  0.46177521  1
  C  C338  1  0.49528021  0.83676654  0.13581237  1
  H  H339  1  0.48079915  0.96127452  0.35646417  1
  H  H340  1  0.37832621  0.97735899  0.47042719  1
  Cu  Cu341  1  0.39405087  0.88770553  0.00390794  1
  O  O342  1  0.33317526  0.88200976  0.01120139  1
  C  C343  1  0.31099786  0.72226301  0.76220351  1
  O  O344  1  0.33364104  0.61966317  0.79578122  1
  C  C345  1  0.35932570  0.71682078  0.74826865  1
  H  H346  1  0.37467885  0.68532602  0.73097559  1
  C  C347  1  0.30180139  0.63909878  0.72571371  1
  C  C348  1  0.28520655  0.68289942  0.71521273  1
  C  C349  1  0.27831047  0.61653576  0.62159807  1
  Cu  Cu350  1  0.47713623  0.59057480  0.66103558  1
  C  C351  1  0.35351014  0.64156744  0.92727852  1
  O  O352  1  0.44138348  0.62967513  0.57446157  1
  H  H353  1  0.33640125  0.67403212  0.92119893  1
  C  C354  1  0.29298504  0.57057367  0.58632826  1
  H  H355  1  0.42286851  0.66699171  0.88948787  1
  H  H356  1  0.36302643  0.66401287  0.55245290  1
  C  C357  1  0.25637069  0.54049318  0.59867194  1
  C  C358  1  0.25539160  0.70112928  0.61967617  1
  H  H359  1  0.25020898  0.73556369  0.61935125  1
  C  C360  1  0.25975051  0.50018245  0.53695816  1
  C  C361  1  0.40520144  0.64577336  0.96016879  1
  H  H362  1  0.42029362  0.61420877  0.95293673  1
  C  C363  1  0.48437940  0.50417840  0.77451506  1
  H  H364  1  0.32639621  0.51255594  0.65702235  1
  H  H365  1  0.42495090  0.74819270  0.72263788  1
  H  H366  1  0.33743799  0.50436463  0.84199360  1
  H  H367  1  0.31281409  0.72628623  0.51291542  1
  C  C368  1  0.33506996  0.56132501  0.51331788  1
  C  C369  1  0.38898360  0.75144666  0.74653236  1
  O  O370  1  0.49977523  0.89148075  0.81681821  1
  C  C371  1  0.40417900  0.82786026  0.78111946  1
  C  C372  1  0.28966204  0.85438591  0.51316946  1
  H  H373  1  0.30606539  0.92420146  0.53698523  1
  C  C374  1  0.29484365  0.76272701  0.80734633  1
  H  H375  1  0.31737638  0.82962367  0.85854236  1
  C  C376  1  0.31894916  0.89150919  0.50591216  1
  O  O377  1  0.45294295  0.90481278  0.98958418  1
  O  O378  1  0.44693834  0.82109216  0.75100422  1
  O  O379  1  0.39081135  0.86438239  0.82296439  1
  C  C380  1  0.32625861  0.79619879  0.82241201  1
  Cu  Cu381  1  0.48553788  0.86040949  0.65472124  1
  H  H382  1  0.48071124  0.95968443  0.65286714  1
  C  C383  1  0.37226070  0.79218170  0.78085862  1
  C  C384  1  0.48438485  0.88228878  0.93362990  1
  H  H385  1  0.25786170  0.76623463  0.82718697  1
  H  H386  1  0.61036806  0.16774150  0.28520833  1
  C  C387  1  0.63129726  0.13779211  0.28468175  1
  C  C388  1  0.67159194  0.13529970  0.36113701  1
  C  C389  1  0.64677810  0.06283079  0.23037205  1
  C  C390  1  0.68625773  0.06167456  0.30698605  1
  C  C391  1  0.67556341  0.18147747  0.41021983  1
  C  C392  1  0.70267675  0.09905981  0.37746808  1
  C  C393  1  0.61855954  0.09957619  0.21505180  1
  C  C394  1  0.68845995  0.21169929  0.30890991  1
  H  H395  1  0.63697298  0.03558848  0.16862761  1
  C  C396  1  0.58208941  0.10065048  0.10633689  1
  H  H397  1  0.69391662  0.20075867  0.20707423  1
  C  C398  1  0.71845410  0.02500786  0.27938784  1
  C  C399  1  0.55388701  0.13864919  0.08967755  1
  H  H400  1  0.55700104  0.16508065  0.16350401  1
  H  H401  1  0.60037929  0.03262150  0.35666338  1
  H  H402  1  0.52718818  0.11754746  0.35510039  1
  C  C403  1  0.57845517  0.06641922  0.01412108  1
  H  H404  1  0.59673954  0.03675404  0.02905004  1
  C  C405  1  0.56877409  0.03134379  0.42453279  1
  H  H406  1  0.53856727  0.03324206  0.35113327  1
  O  O407  1  0.57449937  0.10935831  0.49796877  1
  C  C408  1  0.50277073  0.14459869  0.35485007  1
  C  C409  1  0.50795692  0.17945553  0.44857504  1
  O  O410  1  0.73979481  0.10027342  0.44819245  1
  H  H411  1  0.56453728  0.22053607  0.00028975  1
  C  C412  1  0.52624914  0.22059132  0.01199524  1
  H  H413  1  0.70614472  0.09331354  0.02673673  1
  C  C414  1  0.54665207  0.49698998  0.48626182  1
  C  C415  1  0.57697477  0.28391529  0.26285599  1
  C  C416  1  0.57833346  0.43221613  0.31116372  1
  H  H417  1  0.59684226  0.27995340  0.35973717  1
  O  O418  1  0.71655396  0.41714553  0.27940628  1
  H  H419  1  0.61266183  0.27496027  0.06577024  1
  O  O420  1  0.70965127  0.33884562  0.42506680  1
  C  C421  1  0.55961606  0.46911632  0.25769970  1
  C  C422  1  0.69766437  0.25404624  0.34057250  1
  C  C423  1  0.74069174  0.29857570  0.08043866  1
  H  H424  1  0.56123103  0.25180419  0.22967209  1
  C  C425  1  0.63955390  0.35959565  0.01500639  1
  H  H426  1  0.71616636  0.27646192  0.27145832  1
  Cu  Cu427  1  0.67174548  0.38290261  0.35415933  1
  H  H428  1  0.64803079  0.29504693  0.18652605  1
  O  O429  1  0.61686301  0.36028324  0.42235852  1
  C  C430  1  0.69714246  0.29414324  0.01685149  1
  H  H431  1  0.55704482  0.47409384  0.15044270  1
  H  H432  1  0.59289116  0.41231195  0.23497400  1
  C  C433  1  0.61069955  0.29787214  0.15001288  1
  O  O434  1  0.60513686  0.34298893  0.08422990  1
  H  H435  1  0.54715220  0.30645397  0.27972742  1
  C  C436  1  0.57930223  0.42667851  0.45532473  1
  C  C437  1  0.68597468  0.26861004  0.46960315  1
  H  H438  1  0.52971745  0.29020050  0.02799253  1
  C  C439  1  0.50587510  0.26216959  0.02736881  1
  C  C440  1  0.59438169  0.17895900  0.81709249  1
  H  H441  1  0.61210251  0.17773439  0.92328008  1
  C  C442  1  0.63468045  0.11473111  0.74571811  1
  C  C443  1  0.59707946  0.14466970  0.71037651  1
  C  C444  1  0.71244663  0.06521740  0.82423922  1
  C  C445  1  0.69816786  0.06373395  0.68572615  1
  C  C446  1  0.66045632  0.08840441  0.64651822  1
  C  C447  1  0.57107560  0.14402945  0.59179308  1
  C  C448  1  0.56724821  0.20733601  0.75437000  1
  C  C449  1  0.53728994  0.21450792  0.65146093  1
  C  C450  1  0.65137912  0.11580590  0.88572555  1
  C  C451  1  0.54741772  0.07084512  0.90718727  1
  H  H452  1  0.71703063  0.04340632  0.60931728  1
  C  C453  1  0.59438119  0.01320920  0.79618369  1
  C  C454  1  0.68925207  0.09010537  0.92186921  1
  H  H455  1  0.62692013  0.02938345  0.82345186  1
  C  C456  1  0.54882847  0.02976220  0.82876887  1
  H  H457  1  0.69733735  0.18774457  0.94184775  1
  H  H458  1  0.65796692  0.17457844  0.63053379  1
  C  C459  1  0.66902280  0.19576365  0.54395582  1
  H  H460  1  0.58972210  0.05854155  0.62332982  1
  H  H461  1  0.71458689  0.14678788  0.57087970  1
  H  H462  1  0.63295305  0.13366328  0.96739317  1
  C  C463  1  0.67044173  0.23878531  0.56813650  1
  C  C464  1  0.54025026  0.17728433  0.56322576  1
  C  C465  1  0.74944388  0.14389043  0.51777035  1
  C  C466  1  0.70636094  0.21959395  0.97970250  1
  C  C467  1  0.56658088  0.06810142  0.53651629  1
  H  H468  1  0.52958687  0.06963431  0.58053500  1
  C  C469  1  0.51798197  0.10658110  0.88091121  1
  C  C470  1  0.52344898  0.13940747  0.98566308  1
  H  H471  1  0.51934266  0.24665521  0.62720164  1
  H  H472  1  0.66399296  0.24946612  0.67099147  1
  C  C473  1  0.50896720  0.01251532  0.76690850  1
  H  H474  1  0.65055201  0.08783638  0.54092980  1
  C  C475  1  0.56206759  0.45847083  0.54257470  1
  H  H476  1  0.63635524  0.48476577  0.87255803  1
  C  C477  1  0.68395793  0.34031119  0.98659161  1
  H  H478  1  0.57275633  0.32944977  0.86113472  1
  H  H479  1  0.56745607  0.27520376  0.78505912  1
  H  H480  1  0.64466559  0.25291907  0.91654537  1
  Cu  Cu481  1  0.69679399  0.43012675  0.55378289  1
  C  C482  1  0.60121595  0.38683837  0.50331232  1
  C  C483  1  0.69359428  0.31271302  0.51123731  1
  C  C484  1  0.71821898  0.40135581  0.86949561  1
  O  O485  1  0.67279324  0.48129410  0.61726368  1
  C  C486  1  0.56361741  0.49351649  0.84663813  1
  H  H487  1  0.66987302  0.44961841  0.84053828  1
  H  H488  1  0.54259293  0.31144321  0.56700628  1
  C  C489  1  0.63682527  0.39963805  0.95279595  1
  C  C490  1  0.59484009  0.42582434  0.92946323  1
  C  C491  1  0.67656698  0.25426224  0.97069551  1
  C  C492  1  0.54829869  0.40981673  0.95206474  1
  O  O493  1  0.68871650  0.32215063  0.63367969  1
  C  C494  1  0.60199658  0.46980708  0.88837780  1
  C  C495  1  0.51957698  0.47539466  0.84096570  1
  Cu  Cu496  1  0.66902344  0.37356694  0.69489472  1
  C  C497  1  0.67370571  0.41938370  0.88731038  1
  H  H498  1  0.53825880  0.36221436  0.65903479  1
  C  C499  1  0.53636403  0.32745454  0.67125017  1
  C  C500  1  0.51273581  0.43434552  0.89641281  1
  C  C501  1  0.57570404  0.30987491  0.76352827  1
  C  C502  1  0.72179257  0.35921655  0.91910900  1
  H  H503  1  0.54369195  0.37545773  0.98271773  1
  H  H504  1  0.56687567  0.45814112  0.65298728  1
  O  O505  1  0.61085745  0.38403163  0.62990294  1
  H  H506  1  0.61068588  0.30817718  0.71685175  1
  H  H507  1  0.62391189  0.62936648  0.23889592  1
  C  C508  1  0.60409847  0.65814373  0.22219312  1
  H  H509  1  0.58306815  0.57001887  0.25659951  1
  C  C510  1  0.55585091  0.65575700  0.19102179  1
  C  C511  1  0.67346072  0.69807736  0.30824988  1
  C  C512  1  0.62482540  0.69775852  0.25084147  1
  C  C513  1  0.54617814  0.57356127  0.24215885  1
  C  C514  1  0.53662178  0.69670175  0.14682732  1
  C  C515  1  0.52752921  0.61434219  0.20123660  1
  C  C516  1  0.51763437  0.54163579  0.28692715  1
  C  C517  1  0.70556662  0.73110336  0.27759437  1
  C  C518  1  0.68941056  0.66368999  0.39218067  1
  C  C519  1  0.56299727  0.73361091  0.16286874  1
  C  C520  1  0.60628152  0.73973777  0.23389568  1
  H  H521  1  0.62915279  0.69769702  0.02535735  1
  C  C522  1  0.72193204  0.53335566  0.44484789  1
  H  H523  1  0.66746636  0.63534023  0.40844210  1
  H  H524  1  0.73676670  0.63974678  0.06171223  1
  C  C525  1  0.74574386  0.73609655  0.35007165  1
  H  H526  1  0.69601420  0.51306093  0.40406846  1
  H  H527  1  0.50240417  0.69930490  0.10893330  1
  C  C528  1  0.72886639  0.66889284  0.47131620  1
  Cu  Cu529  1  0.52843201  0.60856105  0.44686705  1
  C  C530  1  0.54286265  0.50208072  0.34524507  1
  H  H531  1  0.74880625  0.55104852  0.25541317  1
  H  H532  1  0.70357138  0.75339394  0.19788488  1
  C  C533  1  0.50999631  0.79829526  0.18943612  1
  C  C534  1  0.72819499  0.95458187  0.17572661  1
  H  H535  1  0.57345962  0.81042417  0.29833229  1
  H  H536  1  0.66704495  0.99267707  0.14531739  1
  H  H537  1  0.59693754  0.81805455  0.12064264  1
  C  C538  1  0.53994083  0.77383409  0.10458646  1
  C  C539  1  0.60375302  0.81928811  0.22962908  1
  C  C540  1  0.70067727  0.99082827  0.19810661  1
  C  C541  1  0.70700898  0.92525973  0.07692853  1
  H  H542  1  0.66077310  0.86770651  0.21548660  1
  O  O543  1  0.62717149  0.77610245  0.26666000  1
  H  H544  1  0.60309497  0.89079852  0.24407700  1
  C  C545  1  0.62531027  0.86301974  0.26969418  1
  H  H546  1  0.63054229  0.86629315  0.37695702  1
  H  H547  1  0.56785393  0.99712488  0.46969931  1
  H  H548  1  0.68282344  0.75200217  0.49694701  1
  C  C549  1  0.50854864  0.84845849  0.00284812  1
  H  H550  1  0.65990615  0.60252916  0.61909196  1
  C  C551  1  0.65570778  0.62182588  0.70831881  1
  C  C552  1  0.69236202  0.63542643  0.78903566  1
  C  C553  1  0.60961935  0.63290850  0.74486309  1
  C  C554  1  0.56879053  0.62265452  0.66597977  1
  O  O555  1  0.57875158  0.60800074  0.54956007  1
  C  C556  1  0.68171853  0.66649259  0.89056842  1
  H  H557  1  0.72856510  0.63004638  0.76323792  1
  O  O558  1  0.70115331  0.51570575  0.80187840  1
  O  O559  1  0.52725283  0.62987959  0.70442347  1
  C  C560  1  0.72589233  0.53818244  0.58673744  1
  H  H561  1  0.57169915  0.52598799  0.81749974  1
  H  H562  1  0.69643834  0.70400071  0.71221124  1
  C  C563  1  0.60122234  0.65763181  0.86181959  1
  C  C564  1  0.69887301  0.51253122  0.68314956  1
  C  C565  1  0.72426709  0.69270222  0.93904428  1
  C  C566  1  0.67680416  0.73443393  0.70926207  1
  H  H567  1  0.64822053  0.73471539  0.79215382  1
  C  C568  1  0.63663163  0.67400721  0.93930990  1
  H  H569  1  0.56533890  0.66452373  0.89147682  1
  H  H570  1  0.73349451  0.64188021  0.54648168  1
  H  H571  1  0.53766225  0.52328588  0.55927759  1
  C  C572  1  0.65508740  0.74656741  0.57245825  1
  H  H573  1  0.63269813  0.71979242  0.53718308  1
  C  C574  1  0.74033029  0.73158280  0.87662852  1
  O  O575  1  0.50034554  0.54213590  0.74263864  1
  C  C576  1  0.56047124  0.91423703  0.59856928  1
  C  C577  1  0.51335293  0.97444965  0.69307936  1
  C  C578  1  0.53995881  0.82315827  0.92333214  1
  H  H579  1  0.58111082  0.76412461  0.91600730  1
  O  O580  1  0.72009168  0.75417844  0.78462696  1
  C  C581  1  0.55632498  0.95500221  0.67976693  1
  C  C582  1  0.55508238  0.78354486  0.97085325  1
  H  H583  1  0.55334031  0.83274078  0.81663200  1
  H  H584  1  0.74452164  0.82120655  0.82855851  1
  H  H585  1  0.63126234  0.96120984  0.70389993  1
  C  C586  1  0.59594097  0.97542061  0.72152404  1
  H  H587  1  0.62922495  0.77383895  0.57571736  1
  O  O588  1  0.52244815  0.89821345  0.55327808  1
  O  O589  1  0.59706308  0.89737940  0.57753389  1
  C  C590  1  0.68891678  0.90362818  0.99004937  1
  H  H591  1  0.67196016  0.88245878  0.91546306  1
  O  O592  1  0.82552034  0.20728698  0.36053566  1
  Cu  Cu593  1  0.85631867  0.18371533  0.21050359  1
  O  O594  1  0.92134498  0.18559860  0.18920997  1
  C  C595  1  0.94677492  0.21485418  0.23587088  1
  C  C596  1  0.98545278  0.22964604  0.15285395  1
  H  H597  1  0.78528258  0.04583055  0.38724418  1
  C  C598  1  0.85310815  0.21907402  0.45019383  1
  O  O599  1  0.83148400  0.19740686  0.05076178  1
  C  C600  1  0.99398550  0.20482345  0.03546843  1
  H  H601  1  0.75281435  0.17029500  0.43922246  1
  C  C602  1  0.76517181  0.01995976  0.33630856  1
  C  C603  1  0.75267593  0.22357006  0.02733769  1
  O  O604  1  0.94166075  0.23083598  0.35265749  1
  C  C605  1  0.78814290  0.18839092  0.01500835  1
  H  H606  1  0.99760231  0.28388559  0.28801840  1
  H  H607  1  0.83726915  0.49874200  0.36818202  1
  H  H608  1  0.97930071  0.38446144  0.44064291  1
  H  H609  1  0.75874691  0.41211666  0.07673125  1
  O  O610  1  0.75334689  0.42800283  0.46895223  1
  H  H611  1  0.79083045  0.28294092  0.38737802  1
  C  C612  1  0.92232458  0.38719095  0.06098475  1
  C  C613  1  0.83612983  0.40697197  0.33659173  1
  C  C614  1  0.99855085  0.40608923  0.02534474  1
  C  C615  1  0.83355313  0.39687591  0.04968429  1
  C  C616  1  0.81450073  0.29130440  0.46754252  1
  C  C617  1  0.76827983  0.26187054  0.08229632  1
  C  C618  1  0.87487289  0.39386441  0.12736128  1
  H  H619  1  0.75435928  0.33017117  0.10924968  1
  O  O620  1  0.94707267  0.46116371  0.11300442  1
  C  C621  1  0.95518544  0.42187488  0.07468467  1
  H  H622  1  0.83761813  0.41312547  0.44761834  1
  H  H623  1  0.88068156  0.46438393  0.21511920  1
  H  H624  1  0.80649426  0.26619782  0.11051641  1
  C  C625  1  0.87693547  0.39900912  0.26943007  1
  C  C626  1  0.79401049  0.41065952  0.25911079  1
  H  H627  1  0.87956432  0.46670729  0.03030532  1
  C  C628  1  0.89541953  0.47946824  0.12391417  1
  H  H629  1  0.91120030  0.39707449  0.31978662  1
  C  C630  1  0.79234846  0.40583998  0.12066050  1
  C  C631  1  0.75474772  0.42026778  0.34291580  1
  H  H632  1  0.77917653  0.35605426  0.48792110  1
  C  C633  1  0.92722636  0.10223080  0.73389856  1
  C  C634  1  0.96108821  0.18741482  0.73114094  1
  C  C635  1  0.91400352  0.17851765  0.75804186  1
  C  C636  1  0.89676877  0.13741716  0.75284717  1
  H  H637  1  0.89156964  0.20533742  0.79217449  1
  H  H638  1  0.85939833  0.13318957  0.77287285  1
  C  C639  1  0.90928748  0.05687008  0.72521287  1
  C  C640  1  0.97539653  0.10923269  0.71342936  1
  O  O641  1  0.93273633  0.02729331  0.68977834  1
  O  O642  1  0.86532476  0.04928789  0.76510415  1
  C  C643  1  0.97934025  0.23320978  0.72712245  1
  C  C644  1  0.79093274  0.14476932  0.61400306  1
  C  C645  1  0.99115289  0.15186756  0.71404747  1
  O  O646  1  0.77561924  0.01463878  0.77025740  1
  H  H647  1  0.78971819  0.16928331  0.70019439  1
  H  H648  1  0.79319573  0.11416910  0.67165217  1
  H  H649  1  0.82315941  0.14906151  0.56052068  1
  O  O650  1  0.77943706  0.15265586  0.97748222  1
  C  C651  1  0.75463483  0.03866538  0.86670582  1
  O  O652  1  0.88118039  0.19179050  0.50162606  1
  O  O653  1  0.76661067  0.03674196  0.98002315  1
  Cu  Cu654  1  0.94170649  0.19589821  0.50219896  1
  H  H655  1  0.96969756  0.18016988  0.99760021  1
  H  H656  1  0.97475814  0.43794176  0.50496781  1
  C  C657  1  0.92519840  0.35141229  0.97491969  1
  H  H658  1  0.84858111  0.47431506  0.53334080  1
  H  H659  1  0.75268963  0.34064543  0.90760497  1
  H  H660  1  0.89337230  0.32497099  0.76725023  1
  C  C661  1  0.84111262  0.34792401  0.61832133  1
  H  H662  1  0.93561835  0.25521948  0.89366920  1
  H  H663  1  0.90020003  0.25495602  0.66969448  1
  C  C664  1  0.83149747  0.39111422  0.69107477  1
  C  C665  1  0.96876955  0.34195769  0.91900336  1
  O  O666  1  0.90397908  0.43082807  0.67675668  1
  C  C667  1  0.80953249  0.33328353  0.51651227  1
  C  C668  1  0.84794366  0.26129422  0.51263257  1
  C  C669  1  0.78857314  0.45514936  0.81930234  1
  H  H670  1  0.77125241  0.47953734  0.88136702  1
  C  C671  1  0.87484430  0.27618808  0.62130278  1
  C  C672  1  0.78638419  0.38377665  0.73362926  1
  H  H673  1  0.76828921  0.35315817  0.70595241  1
  C  C674  1  0.86074605  0.42645329  0.71066531  1
  H  H675  1  0.89490427  0.32926548  0.96298275  1
  H  H676  1  0.94151440  0.37502734  0.71310801  1
  H  H677  1  0.83635247  0.39517443  0.93818804  1
  H  H678  1  0.90946192  0.36785336  0.55774137  1
  C  C679  1  0.87233598  0.31707774  0.67746315  1
  C  C680  1  0.76374277  0.41616109  0.80942912  1
  C  C681  1  0.93217664  0.39140855  0.61524836  1
  C  C682  1  0.83591811  0.45904014  0.78334434  1
  C  C683  1  0.96058192  0.26397405  0.81477404  1
  H  H684  1  0.92658632  0.48199747  0.78276106  1
  C  C685  1  0.97688651  0.30699341  0.81101752  1
  C  C686  1  0.97651163  0.40376887  0.53805346  1
  C  C687  1  0.82668898  0.60318248  0.33564790  1
  C  C688  1  0.87602553  0.59792086  0.34882798  1
  C  C689  1  0.80266167  0.63014510  0.24765391  1
  C  C690  1  0.89612701  0.62840695  0.25789213  1
  O  O691  1  0.89800090  0.57065125  0.42654042  1
  C  C692  1  0.94836578  0.62337085  0.24351162  1
  C  C693  1  0.79091554  0.58067392  0.42377204  1
  C  C694  1  0.97567826  0.63626253  0.35854098  1
  C  C695  1  0.96862803  0.60334137  0.12993420  1
  C  C696  1  0.82645668  0.65735185  0.15846267  1
  C  C697  1  0.87528267  0.65735616  0.17051894  1
  C  C698  1  0.79543956  0.68430944  0.07023861  1
  H  H699  1  0.89678870  0.67778252  0.10520490  1
  C  C700  1  0.89100644  0.52924988  0.13851886  1
  H  H701  1  0.76519006  0.62968426  0.25983360  1
  H  H702  1  0.97113251  0.72398894  0.31591311  1
  H  H703  1  0.85468696  0.54020788  0.17416433  1
  H  H704  1  0.91594142  0.54296389  0.21333394  1
  H  H705  1  0.84200497  0.74082284  0.06106949  1
  H  H706  1  0.96138018  0.64962342  0.45479194  1
  O  O707  1  0.90732118  0.71665664  0.45914208  1
  C  C708  1  0.75725503  0.70573763  0.45269221  1
  H  H709  1  0.94498078  0.59764871  0.04350234  1
  C  C710  1  0.81047881  0.72515480  0.02649062  1
  C  C711  1  0.75516899  0.55418895  0.36261772  1
  H  H712  1  0.89832565  0.54519675  0.04007179  1
  C  C713  1  0.75164670  0.66895288  0.02688868  1
  C  C714  1  0.99578288  0.72431705  0.40021220  1
  C  C715  1  0.98486151  0.70614610  0.02069431  1
  C  C716  1  0.83987963  0.50491983  0.47872787  1
  O  O717  1  0.85240165  0.81753496  0.17140691  1
  O  O718  1  0.79295400  0.99137334  0.35000352  1
  H  H719  1  0.76166063  0.94850320  0.22857146  1
  O  O720  1  0.89996970  0.76656402  0.23103385  1
  H  H721  1  0.98494218  0.79085676  0.16965635  1
  C  C722  1  0.99175039  0.89454266  0.04047093  1
  C  C723  1  0.89080731  0.80371751  0.17256245  1
  Cu  Cu724  1  0.86195969  0.75095948  0.37614070  1
  C  C725  1  0.91160510  0.87333878  0.07663331  1
  C  C726  1  0.94270274  0.90315548  0.02535502  1
  C  C727  1  0.97551009  0.82344085  0.13171945  1
  H  H728  1  0.87478277  0.88133889  0.08325036  1
  H  H729  1  0.77147176  0.76221796  0.32215828  1
  C  C730  1  0.92785834  0.83272714  0.12600091  1
  C  C731  1  0.89190597  0.58593565  0.85838335  1
  C  C732  1  0.84396236  0.57931234  0.85421382  1
  C  C733  1  0.82623749  0.53776865  0.83902756  1
  C  C734  1  0.90910046  0.63034113  0.84891929  1
  O  O735  1  0.87985475  0.66188969  0.85493617  1
  H  H736  1  0.81952590  0.60702531  0.85603049  1
  O  O737  1  0.94956519  0.63585680  0.82904411  1
  C  C738  1  0.92277407  0.55097935  0.83215562  1
  Cu  Cu739  1  0.85591696  0.70330495  0.73103833  1
  H  H740  1  0.96001623  0.55561080  0.81013111  1
  H  H741  1  0.78942087  0.53037618  0.84928912  1
  O  O742  1  0.80770927  0.68959567  0.63055182  1
  H  H743  1  0.81479131  0.61049268  0.60861308  1
  O  O744  1  0.91221513  0.72797091  0.67641328  1
  C  C745  1  0.79006391  0.58786198  0.56589021  1
  H  H746  1  0.86663602  0.55399514  0.61803709  1
  C  C747  1  0.93188036  0.72393632  0.56377892  1
  H  H748  1  0.90888412  0.52101102  0.53935706  1
  H  H749  1  0.76076934  0.56941310  0.75869621  1
  C  C750  1  0.79690916  0.71379710  0.53153543  1
  C  C751  1  0.87637079  0.53853699  0.51967411  1
  C  C752  1  0.75970398  0.56479854  0.65004394  1
  C  C753  1  0.90441884  0.51048318  0.80725372  1
  C  C754  1  0.78391420  0.74704247  0.93121170  1
  C  C755  1  0.98182331  0.72853737  0.53731970  1
  O  O756  1  0.82371249  0.74727337  0.51156386  1
  C  C757  1  0.85613174  0.50215491  0.81647720  1
  H  H758  1  0.80434279  0.51413232  0.50557337  1
  H  H759  1  0.93022882  0.93515764  0.98444446  1
  C  C760  1  0.86805700  0.91230213  0.76843527  1
  C  C761  1  0.78150267  0.82316467  0.84358613  1
  C  C762  1  0.87767472  0.83214770  0.83126927  1
  C  C763  1  0.85170285  0.86853507  0.80451515  1
  H  H764  1  0.96474836  0.94899930  0.86597560  1
  H  H765  1  0.91413836  0.83567301  0.82628988  1
  O  O766  1  0.83561811  0.94000425  0.74380212  1
  H  H767  1  0.78160982  0.88927224  0.79153669  1
  C  C768  1  0.80931386  0.78658968  0.89122894  1
  C  C769  1  0.80334973  0.86001013  0.80287569  1
  O  O770  1  0.90811730  0.91894920  0.75220272  1
  C  C771  1  0.85769840  0.79406213  0.87657471  1
  H  H772  1  0.87742047  0.76334313  0.89758393  1
  Cu  Cu773  1  0.83732863  0.99840235  0.76104382  1
