# generated using pymatgen
data_CuH16C23O5
_symmetry_space_group_name_H-M   'P 1'
_cell_length_a   22.78839504
_cell_length_b   37.04234747
_cell_length_c   11.71585323
_cell_angle_alpha   90.00000000
_cell_angle_beta   90.00000000
_cell_angle_gamma   90.00000000
_symmetry_Int_Tables_number   1
_chemical_formula_structural   CuH16C23O5
_chemical_formula_sum   'Cu18 H288 C414 O90'
_cell_volume   9889.76934936
_cell_formula_units_Z   18
loop_
 _symmetry_equiv_pos_site_id
 _symmetry_equiv_pos_as_xyz
  1  'x, y, z'
loop_
 _atom_site_type_symbol
 _atom_site_label
 _atom_site_symmetry_multiplicity
 _atom_site_fract_x
 _atom_site_fract_y
 _atom_site_fract_z
 _atom_site_occupancy
  C  C0  1  0.15516752  0.08407696  0.18342809  1
  C  C1  1  0.17696814  0.07511890  0.29383107  1
  C  C2  1  0.15833805  0.03855902  0.33389658  1
  O  O3  1  0.12230158  0.02206208  0.27981059  1
  H  H4  1  0.12563889  0.06519050  0.13698488  1
  C  C5  1  0.16596944  0.11748335  0.13505264  1
  H  H6  1  0.10006088  0.21447690  0.23130699  1
  O  O7  1  0.18373727  0.02519208  0.42365019  1
  C  C8  1  0.21372902  0.09702495  0.35909029  1
  C  C9  1  0.20364782  0.14035886  0.20330217  1
  C  C10  1  0.22159090  0.17393094  0.13479301  1
  C  C11  1  0.20460222  0.02379946  0.07539754  1
  C  C12  1  0.22735803  0.13066048  0.31142482  1
  C  C13  1  0.03805374  0.09642552  0.26173648  1
  H  H14  1  0.06260580  0.07960052  0.32438452  1
  H  H15  1  0.05520826  0.12537010  0.26691585  1
  H  H16  1  0.04777699  0.08771505  0.17358035  1
  C  C17  1  0.00566859  0.01261252  0.14621024  1
  H  H18  1  0.14810972  0.12564918  0.05538519  1
  H  H19  1  0.22800892  0.09049104  0.44723618  1
  C  C20  1  0.00957710  0.23258915  0.23278078  1
  H  H21  1  0.03692922  0.13211366  0.07479349  1
  C  C22  1  0.06829298  0.23651524  0.21723358  1
  H  H23  1  0.13297438  0.17563155  0.04883842  1
  C  C24  1  0.17705068  0.18804871  0.05884364  1
  H  H25  1  0.03069928  0.18706461  0.34211124  1
  C  C26  1  0.00260053  0.19316146  0.26872687  1
  H  H27  1  0.22694723  0.04534489  0.12607978  1
  H  H28  1  0.04375372  0.01068406  0.40685882  1
  H  H29  1  0.02046570  0.17427582  0.19858696  1
  C  C30  1  0.24644858  0.23426636  0.00116830  1
  H  H31  1  0.05613593  0.01241559  0.14762770  1
  H  H32  1  0.01882635  0.20039913  0.06559216  1
  C  C33  1  0.20997902  0.27345580  0.48521114  1
  C  C34  1  0.09746203  0.27454523  0.46345638  1
  C  C35  1  0.04628768  0.49585999  0.40750713  1
  C  C36  1  0.11016373  0.32188269  0.27956469  1
  O  O37  1  0.08211773  0.38956694  0.06333670  1
  C  C38  1  0.16007051  0.31192902  0.34016533  1
  C  C39  1  0.06582355  0.48932427  0.17573873  1
  H  H40  1  0.07527120  0.45965704  0.18785680  1
  H  H41  1  0.20321691  0.31617338  0.30632848  1
  H  H42  1  0.08348026  0.48238182  0.45293906  1
  H  H43  1  0.08382332  0.26346968  0.20130411  1
  C  C44  1  0.13559911  0.39132828  0.02655032  1
  H  H45  1  0.02760178  0.43119194  0.14116981  1
  H  H46  1  0.11195987  0.33881202  0.20006371  1
  C  C47  1  0.04470170  0.28324526  0.40539061  1
  H  H48  1  0.03327397  0.37286148  0.26200338  1
  C  C49  1  0.05332353  0.30850661  0.31316076  1
  C  C50  1  0.15408397  0.28779730  0.43375495  1
  H  H51  1  0.02807905  0.47793312  0.33964388  1
  C  C52  1  0.16157505  0.42979752  0.00300324  1
  O  O53  1  0.16616410  0.36527470  0.02866366  1
  C  C54  1  0.07633465  0.18326620  0.79622155  1
  H  H55  1  0.09987026  0.13118085  0.73309082  1
  C  C56  1  0.15901415  0.09634286  0.90431999  1
  C  C57  1  0.08350337  0.14641106  0.80666012  1
  H  H58  1  0.13473417  0.07932451  0.69175115  1
  H  H59  1  0.08792403  0.19896274  0.71993375  1
  C  C60  1  0.07135600  0.12785419  0.90983896  1
  C  C61  1  0.16232668  0.02331982  0.70944507  1
  H  H62  1  0.17617480  0.12151781  0.86719680  1
  C  C63  1  0.17274992  0.05949067  0.68064998  1
  C  C64  1  0.19932088  0.06911567  0.92819765  1
  C  C65  1  0.05298458  0.20130472  0.89109932  1
  C  C66  1  0.09681350  0.08965004  0.92054215  1
  O  O67  1  0.18917431  0.13249296  0.61017851  1
  C  C68  1  0.07021954  0.05760865  0.95935571  1
  H  H69  1  0.12326580  0.01366568  0.74507976  1
  H  H70  1  0.19257708  0.01109478  0.90768011  1
  C  C71  1  0.10923792  0.03002897  0.96460879  1
  C  C72  1  0.17765904  0.03223409  0.96897335  1
  H  H73  1  0.20634734  0.15520030  0.62741395  1
  O  O74  1  0.00133002  0.05349883  0.97454944  1
  C  C75  1  0.04815312  0.23953230  0.88058038  1
  C  C76  1  0.22829130  0.07143853  0.64368345  1
  C  C77  1  0.03109032  0.18452335  0.99046971  1
  C  C78  1  0.04165447  0.14770537  0.99664821  1
  C  C79  1  0.24118262  0.11019589  0.61830682  1
  H  H80  1  0.15656749  0.22688443  0.92870334  1
  H  H81  1  0.00200990  0.00124100  0.54127194  1
  C  C82  1  0.19036222  0.21838194  0.99106665  1
  H  H83  1  0.24218047  0.12750854  0.82012474  1
  C  C84  1  0.24585061  0.46800525  0.98151230  1
  C  C85  1  0.20422143  0.49722893  0.97429519  1
  H  H86  1  0.09737810  0.25789667  0.53668852  1
  O  O87  1  0.02462128  0.25871861  0.96076340  1
  H  H88  1  0.07339618  0.45387722  0.98564917  1
  O  O89  1  0.20412563  0.25010950  0.55216576  1
  C  C90  1  0.14235452  0.49415688  0.97539665  1
  Cu  Cu91  1  0.01241154  0.29163905  0.72914108  1
  Cu  Cu92  1  0.02487492  0.36661262  0.98714463  1
  O  O93  1  0.05780040  0.25376193  0.78210416  1
  C  C94  1  0.22323869  0.43360660  0.99988222  1
  C  C95  1  0.12055039  0.45799683  0.98773016  1
  Cu  Cu96  1  0.12536833  0.64668726  0.32842670  1
  O  O97  1  0.13805744  0.60993036  0.21257046  1
  C  C98  1  0.14750662  0.57614385  0.22500710  1
  C  C99  1  0.21433965  0.70067913  0.26862709  1
  O  O100  1  0.17326153  0.67795933  0.23048480  1
  O  O101  1  0.18740264  0.56469400  0.28289547  1
  C  C102  1  0.09944460  0.55022026  0.18909072  1
  C  C103  1  0.10898482  0.51410156  0.20610897  1
  C  C104  1  0.04805986  0.56491483  0.13824756  1
  O  O105  1  0.05774248  0.65977694  0.25620875  1
  O  O106  1  0.10972773  0.67771874  0.45812910  1
  H  H107  1  0.05537945  0.60322146  0.35053101  1
  H  H108  1  0.23175391  0.65547763  0.06917669  1
  H  H109  1  0.15165342  0.50519215  0.24473243  1
  C  C110  1  0.01068686  0.50177408  0.13386515  1
  Cu  Cu111  1  0.00152837  0.74282351  0.31517381  1
  H  H112  1  0.04749109  0.59506164  0.11963179  1
  H  H113  1  0.06302842  0.52332353  0.37451466  1
  O  O114  1  0.20555351  0.73356415  0.26573997  1
  C  C115  1  0.01884013  0.60953793  0.40837183  1
  O  O116  1  0.00423281  0.73566496  0.47347470  1
  C  C117  1  0.00920836  0.66759302  0.30161971  1
  H  H118  1  0.11675289  0.72820230  0.20756714  1
  C  C119  1  0.04254372  0.74755893  0.11561245  1
  C  C120  1  0.00036681  0.58491535  0.48703573  1
  C  C121  1  0.00447807  0.54113280  0.11431533  1
  H  H122  1  0.02369119  0.72060399  0.10674699  1
  H  H123  1  0.24416475  0.72240002  0.01886953  1
  C  C124  1  0.09215426  0.75179192  0.17567321  1
  C  C125  1  0.00245212  0.87837016  0.21994701  1
  H  H126  1  0.02016049  0.87983300  0.13107188  1
  C  C127  1  0.00754961  0.78160862  0.07817004  1
  C  C128  1  0.14404948  0.87109613  0.21273701  1
  H  H129  1  0.03040158  0.80557155  0.10017287  1
  H  H130  1  0.12285185  0.97559550  0.35901851  1
  H  H131  1  0.08210212  0.93612408  0.36527744  1
  C  C132  1  0.19028647  0.95934686  0.03586724  1
  O  O133  1  0.01553492  0.79040505  0.32991751  1
  C  C134  1  0.21953449  0.81168091  0.22827899  1
  C  C135  1  0.24595640  0.98495511  0.21517292  1
  H  H136  1  0.11469913  0.77742055  0.18853408  1
  H  H137  1  0.03999158  0.88188581  0.27750557  1
  C  C138  1  0.02950086  0.98897708  0.47006383  1
  C  C139  1  0.08758084  0.82904963  0.46192013  1
  H  H140  1  0.24735340  0.78838176  0.24464292  1
  H  H141  1  0.06759286  0.92492271  0.05922211  1
  H  H142  1  0.00078258  0.97141210  0.41882615  1
  C  C143  1  0.18254070  0.86859126  0.30387903  1
  C  C144  1  0.18694827  0.81529928  0.12960414  1
  C  C145  1  0.14574702  0.84552518  0.12301976  1
  C  C146  1  0.21243138  0.98898552  0.10964610  1
  H  H147  1  0.21153610  0.93167578  0.03633077  1
  H  H148  1  0.10838708  0.80726350  0.41247978  1
  C  C149  1  0.10538031  0.85019846  0.02403369  1
  H  H150  1  0.15510599  0.94008102  0.44051087  1
  C  C151  1  0.02823632  0.83907567  0.45870613  1
  C  C152  1  0.11160838  0.95259305  0.41879756  1
  H  H153  1  0.11330648  0.89434997  0.21511462  1
  H  H154  1  0.18657068  0.79609934  0.06140890  1
  C  C155  1  0.21919229  0.83840470  0.31338532  1
  H  H156  1  0.18088198  0.88956441  0.37001733  1
  C  C157  1  0.08315102  0.68550590  0.65791212  1
  O  O158  1  0.17562490  0.56821233  0.81898149  1
  C  C159  1  0.12899015  0.68109186  0.56273499  1
  H  H160  1  0.07819592  0.57832599  0.68038296  1
  C  C161  1  0.14300314  0.59505352  0.80404329  1
  C  C162  1  0.09890715  0.60393355  0.70937134  1
  H  H163  1  0.12276640  0.61494599  0.63695857  1
  C  C164  1  0.10461057  0.69431716  0.76680740  1
  H  H165  1  0.15000836  0.69956169  0.78807734  1
  O  O166  1  0.17941182  0.68251474  0.58480986  1
  C  C167  1  0.13408859  0.62810109  0.87617653  1
  H  H168  1  0.06771138  0.62387293  0.74416478  1
  C  C169  1  0.21840689  0.56924329  0.92196098  1
  H  H170  1  0.07073602  0.70530567  0.93283118  1
  C  C171  1  0.05964113  0.69786100  0.84635838  1
  C  C172  1  0.24875235  0.70093895  0.95763186  1
  C  C173  1  0.22912279  0.53700619  0.98133828  1
  H  H174  1  0.16048657  0.65070960  0.84091418  1
  H  H175  1  0.11499883  0.51806421  0.97325352  1
  C  C176  1  0.02583126  0.67958956  0.62748048  1
  H  H177  1  0.01536832  0.67507778  0.53692691  1
  C  C178  1  0.24558430  0.66458311  0.98540732  1
  H  H179  1  0.08643905  0.63403391  0.88549550  1
  H  H180  1  0.02452699  0.56043133  0.51050441  1
  H  H181  1  0.15137015  0.62082168  0.96630025  1
  C  C182  1  0.14364190  0.96191873  0.96691806  1
  C  C183  1  0.04198720  0.93569796  0.98891607  1
  C  C184  1  0.04027780  0.97437082  0.95705647  1
  H  H185  1  0.06471187  0.75185069  0.64462661  1
  O  O186  1  0.09155382  0.96806338  0.62255920  1
  C  C187  1  0.20980994  0.99859807  0.70297049  1
  C  C188  1  0.01849029  0.85165996  0.87519123  1
  C  C189  1  0.19396095  0.95771486  0.71654287  1
  H  H190  1  0.16935918  0.84190637  0.53880381  1
  H  H191  1  0.00134326  0.98885988  0.92689874  1
  C  C192  1  0.14349089  0.94188863  0.66892117  1
  C  C193  1  0.24847144  0.90251809  0.74284738  1
  C  C194  1  0.04429797  0.89223073  0.57486886  1
  C  C195  1  0.04351206  0.79704842  0.76464872  1
  H  H196  1  0.19593717  0.85519517  0.69563235  1
  H  H197  1  0.08887102  0.80218604  0.79447720  1
  C  C198  1  0.06436643  0.84903944  0.95560391  1
  C  C199  1  0.09717416  0.99102938  0.96328225  1
  C  C200  1  0.24626514  0.93942304  0.74907511  1
  C  C201  1  0.19800116  0.88440093  0.70082573  1
  C  C202  1  0.14890302  0.90467497  0.66179079  1
  H  H203  1  0.02546251  0.91747500  0.62111837  1
  C  C204  1  0.03302333  0.77052823  0.68090641  1
  C  C205  1  0.12310537  0.85099820  0.53403537  1
  H  H206  1  0.13478667  0.93659847  0.91490007  1
  C  C207  1  0.01217439  0.91221204  0.91784433  1
  C  C208  1  0.08158846  0.96907399  0.52117880  1
  C  C209  1  0.10308698  0.88181368  0.59297421  1
  C  C210  1  0.00580605  0.87066262  0.51032984  1
  H  H211  1  0.00304172  0.77954641  0.98103010  1
  O  O212  1  0.32710178  0.17502657  0.23188495  1
  C  C213  1  0.34329323  0.14335272  0.22140523  1
  C  C214  1  0.38853807  0.12288934  0.29009249  1
  H  H215  1  0.37024671  0.09915488  0.34276198  1
  H  H216  1  0.41146438  0.14216587  0.35173659  1
  H  H217  1  0.42322216  0.11411151  0.22799672  1
  C  C218  1  0.32572040  0.11411004  0.13772172  1
  O  O219  1  0.26556030  0.01135850  0.26970558  1
  H  H220  1  0.28780002  0.09906872  0.17319520  1
  C  C221  1  0.27598929  0.18908900  0.15223586  1
  H  H222  1  0.31391806  0.12771119  0.05342818  1
  H  H223  1  0.35902700  0.09293736  0.12129436  1
  C  C224  1  0.47103544  0.04741029  0.00928814  1
  C  C225  1  0.38809397  0.00419343  0.03009104  1
  C  C226  1  0.28436923  0.21975542  0.08496474  1
  H  H227  1  0.43672227  0.18953477  0.08141141  1
  C  C228  1  0.45621370  0.16586947  0.04065714  1
  C  C229  1  0.48743746  0.20390762  0.42533220  1
  H  H230  1  0.48696561  0.14684735  0.46464097  1
  Cu  Cu231  1  0.26526952  0.01431572  0.42980108  1
  H  H232  1  0.43900857  0.20662103  0.43355304  1
  H  H233  1  0.25428665  0.15048189  0.36059666  1
  C  C234  1  0.34611704  0.23725885  0.08632328  1
  H  H235  1  0.25120612  0.40985922  0.00668502  1
  H  H236  1  0.33054492  0.49860003  0.20774057  1
  C  C237  1  0.31420045  0.42480462  0.39629229  1
  C  C238  1  0.49112321  0.30537868  0.03648238  1
  O  O239  1  0.40826981  0.34410206  0.41299461  1
  O  O240  1  0.31144762  0.35303411  0.44637603  1
  H  H241  1  0.33637449  0.26434091  0.24933077  1
  H  H242  1  0.42213797  0.30678745  0.21641158  1
  H  H243  1  0.45783671  0.39420010  0.34652865  1
  C  C244  1  0.36132869  0.36459548  0.41234810  1
  C  C245  1  0.36469201  0.26017800  0.17506763  1
  H  H246  1  0.47120420  0.46104109  0.31696529  1
  H  H247  1  0.28252123  0.47986831  0.38879780  1
  C  C248  1  0.32097937  0.46123166  0.37619436  1
  C  C249  1  0.42093855  0.41334587  0.35485571  1
  O  O250  1  0.40713533  0.46432102  0.05887615  1
  H  H251  1  0.27038847  0.41315048  0.42435403  1
  H  H252  1  0.41978809  0.43900260  0.07497945  1
  O  O253  1  0.44817687  0.27587939  0.40073221  1
  C  C254  1  0.40900175  0.28577278  0.15432911  1
  C  C255  1  0.44037509  0.28174559  0.05020051  1
  C  C256  1  0.42877613  0.45007278  0.33481652  1
  O  O257  1  0.26185801  0.28668358  0.46153564  1
  C  C258  1  0.36494931  0.40250809  0.39001466  1
  C  C259  1  0.37898652  0.47392801  0.34672694  1
  C  C260  1  0.35479229  0.15481820  0.79971858  1
  C  C261  1  0.33825216  0.11955653  0.84629576  1
  C  C262  1  0.38218531  0.09334368  0.87841308  1
  C  C263  1  0.41063926  0.16510330  0.75627133  1
  H  H264  1  0.44720608  0.14619657  0.74516260  1
  C  C265  1  0.30538584  0.18050633  0.79884861  1
  C  C266  1  0.27782412  0.11230106  0.86053934  1
  C  C267  1  0.26103966  0.07923725  0.91032899  1
  H  H268  1  0.32005442  0.05593509  0.60918703  1
  O  O269  1  0.44185062  0.10334602  0.86337621  1
  C  C270  1  0.41919035  0.19865096  0.71259031  1
  C  C271  1  0.31152385  0.21507990  0.75349955  1
  C  C272  1  0.37010103  0.22306885  0.71467521  1
  H  H273  1  0.25966343  0.17289981  0.80964025  1
  H  H274  1  0.46040695  0.20815456  0.67956410  1
  H  H275  1  0.36290844  0.21304623  0.91786571  1
  H  H276  1  0.42530092  0.09257917  0.59572293  1
  H  H277  1  0.27621757  0.23717995  0.73999277  1
  C  C278  1  0.27660519  0.04587489  0.63849421  1
  O  O279  1  0.28652299  0.12178342  0.58615644  1
  H  H280  1  0.45789177  0.04847446  0.63761900  1
  C  C281  1  0.43296468  0.07331063  0.66617077  1
  C  C282  1  0.46740715  0.09333056  0.75899918  1
  H  H283  1  0.43163850  0.00291370  0.75894691  1
  H  H284  1  0.38826850  0.06486064  0.70481945  1
  H  H285  1  0.42660294  0.15234661  0.96990949  1
  C  C286  1  0.30546830  0.05346963  0.93915447  1
  C  C287  1  0.36548739  0.06133324  0.93306980  1
  C  C288  1  0.37859330  0.23315797  0.98162902  1
  C  C289  1  0.26831210  0.01049827  0.66884199  1
  C  C290  1  0.41039385  0.03851149  0.99012822  1
  H  H291  1  0.28553357  0.02785541  0.97025553  1
  H  H292  1  0.48918959  0.07530414  0.98389615  1
  H  H293  1  0.47640950  0.44412366  0.58401737  1
  C  C294  1  0.49722473  0.49356394  0.51150673  1
  C  C295  1  0.42506595  0.25565648  0.96600798  1
  O  O296  1  0.44038406  0.43610635  0.89992183  1
  Cu  Cu297  1  0.42149897  0.30732848  0.51857063  1
  H  H298  1  0.31180609  0.49548962  0.61806301  1
  H  H299  1  0.41513744  0.47011002  0.51772956  1
  H  H300  1  0.45418350  0.25502350  0.88989823  1
  H  H301  1  0.47582770  0.48396308  0.72124252  1
  O  O302  1  0.42375733  0.27046868  0.63911173  1
  C  C303  1  0.46130416  0.46874670  0.53924138  1
  C  C304  1  0.42582332  0.46473526  0.93631642  1
  Cu  Cu305  1  0.31641442  0.31423119  0.55172752  1
  H  H306  1  0.29459843  0.47344223  0.98030305  1
  C  C307  1  0.37471897  0.25871916  0.67213277  1
  O  O308  1  0.32829151  0.27847776  0.66495333  1
  H  H309  1  0.25870383  0.25829740  0.95134254  1
  H  H310  1  0.40351712  0.60801088  0.18760252  1
  C  C311  1  0.40074042  0.58121941  0.22382521  1
  C  C312  1  0.44024492  0.56952006  0.30843025  1
  C  C313  1  0.35850621  0.55640032  0.18821192  1
  C  C314  1  0.44354330  0.53586724  0.36881186  1
  Cu  Cu315  1  0.48557836  0.71583402  0.21845455  1
  C  C316  1  0.30921351  0.56196171  0.09453496  1
  H  H317  1  0.33090935  0.61705416  0.05991778  1
  C  C318  1  0.31641742  0.63603294  0.43081534  1
  H  H319  1  0.33077708  0.60749830  0.43616141  1
  C  C320  1  0.48674216  0.59700186  0.33895639  1
  C  C321  1  0.35724113  0.52225552  0.24177743  1
  O  O322  1  0.48457437  0.52940775  0.44456470  1
  C  C323  1  0.30041623  0.59525889  0.04223282  1
  C  C324  1  0.39620080  0.51344121  0.33118199  1
  H  H325  1  0.26739658  0.50830514  0.12335604  1
  O  O326  1  0.45915147  0.73390674  0.34799155  1
  C  C327  1  0.28946461  0.71065112  0.40511906  1
  C  C328  1  0.26890991  0.53311424  0.07211455  1
  H  H329  1  0.39016117  0.52632608  0.03437852  1
  C  C330  1  0.32704890  0.70082066  0.49118212  1
  C  C331  1  0.49151926  0.74294978  0.43430715  1
  H  H332  1  0.27671637  0.73961968  0.39211259  1
  C  C333  1  0.27805643  0.64669942  0.34553476  1
  H  H334  1  0.34139796  0.52014170  0.49553911  1
  H  H335  1  0.48620265  0.56121879  0.07439104  1
  H  H336  1  0.26444057  0.62632091  0.27992079  1
  C  C337  1  0.26335021  0.68427615  0.33435735  1
  H  H338  1  0.48762597  0.51340047  0.05334880  1
  O  O339  1  0.34690398  0.99979924  0.44189611  1
  O  O340  1  0.25385660  0.95166936  0.24832890  1
  C  C341  1  0.40628216  0.83993710  0.13297549  1
  H  H342  1  0.41509940  0.95234076  0.09405309  1
  C  C343  1  0.47532238  0.91013404  0.01603188  1
  O  O344  1  0.35416383  0.93289471  0.43020367  1
  H  H345  1  0.46643668  0.88153341  0.04570708  1
  C  C346  1  0.25778599  0.83149818  0.41384874  1
  C  C347  1  0.40766099  0.77941339  0.49519943  1
  C  C348  1  0.48846127  0.98746286  0.07996595  1
  H  H349  1  0.33982715  0.99911014  0.04268166  1
  C  C350  1  0.38821117  0.86916429  0.20645267  1
  C  C351  1  0.46062351  0.82401129  0.16013124  1
  C  C352  1  0.42691798  0.98021377  0.07938676  1
  H  H353  1  0.48644947  0.83504767  0.23251605  1
  C  C354  1  0.37238484  0.82951354  0.03536519  1
  O  O355  1  0.42399635  0.87382153  0.28696816  1
  Cu  Cu356  1  0.41106076  0.89741750  0.41961018  1
  Cu  Cu357  1  0.32277221  0.92813499  0.28439923  1
  C  C358  1  0.48444658  0.79922999  0.08358807  1
  H  H359  1  0.38601764  0.76880263  0.42073069  1
  O  O360  1  0.34365786  0.88960105  0.19361164  1
  O  O361  1  0.28515672  0.80355193  0.40868776  1
  Cu  Cu362  1  0.30654135  0.89623244  0.46827997  1
  O  O363  1  0.26716515  0.85659351  0.49455083  1
  H  H364  1  0.32801685  0.84043718  0.01123493  1
  C  C365  1  0.41365110  0.60815864  0.73726003  1
  C  C366  1  0.42235507  0.56905165  0.78140385  1
  C  C367  1  0.44001573  0.67050159  0.75787815  1
  C  C368  1  0.44801182  0.63380611  0.79161322  1
  C  C369  1  0.47078395  0.70372164  0.81280297  1
  C  C370  1  0.40928332  0.67738542  0.65425594  1
  C  C371  1  0.44631279  0.54012609  0.71359981  1
  C  C372  1  0.41196451  0.56450784  0.90198348  1
  H  H373  1  0.39070636  0.58695120  0.94970747  1
  C  C374  1  0.37527628  0.61370270  0.64328011  1
  H  H375  1  0.40867858  0.70482176  0.62041000  1
  C  C376  1  0.37724930  0.65044531  0.60259917  1
  O  O377  1  0.33944355  0.59029706  0.59287865  1
  H  H378  1  0.47896918  0.62584683  0.86027236  1
  C  C379  1  0.41070017  0.52924063  0.94975205  1
  C  C380  1  0.32367920  0.55172546  0.64016899  1
  C  C381  1  0.30104419  0.54723495  0.76225777  1
  H  H382  1  0.45731185  0.54521987  0.62089881  1
  H  H383  1  0.32929910  0.52865665  0.80598471  1
  C  C384  1  0.45187686  0.50589363  0.76559897  1
  H  H385  1  0.30717954  0.57311107  0.81279009  1
  H  H386  1  0.34705998  0.71890590  0.54940126  1
  H  H387  1  0.25352394  0.53939504  0.77698456  1
  C  C388  1  0.42583844  0.50000487  0.87480252  1
  C  C389  1  0.44579287  0.73031652  0.88171323  1
  H  H390  1  0.39968724  0.72664229  0.90925942  1
  C  C391  1  0.32501345  0.52161107  0.58287701  1
  H  H392  1  0.26783730  0.68952376  0.66350360  1
  C  C393  1  0.26591447  0.68103541  0.75502625  1
  C  C394  1  0.26332235  0.64476716  0.78795447  1
  H  H395  1  0.27341291  0.62464915  0.71937167  1
  H  H396  1  0.47169765  0.59134209  0.52001127  1
  C  C397  1  0.27315168  0.74659959  0.80744619  1
  C  C398  1  0.26058159  0.70862619  0.84063648  1
  C  C399  1  0.25535593  0.59782545  0.95624241  1
  C  C400  1  0.25639686  0.63654040  0.90507890  1
  C  C401  1  0.34245144  0.66299237  0.50269740  1
  O  O402  1  0.26633144  0.77417934  0.89609611  1
  O  O403  1  0.28443019  0.75500886  0.71002951  1
  H  H404  1  0.26872914  0.79487728  0.84868694  1
  H  H405  1  0.28774887  0.95412925  0.77922147  1
  H  H406  1  0.48944335  0.97929465  0.91462291  1
  C  C407  1  0.42684448  0.86425370  0.81398412  1
  H  H408  1  0.33042718  0.92910799  0.89134775  1
  C  C409  1  0.49928193  0.78058189  0.61125351  1
  H  H410  1  0.30515930  0.98935514  0.67329756  1
  H  H411  1  0.33800840  0.81451586  0.54610642  1
  C  C412  1  0.44976321  0.92598871  0.91817140  1
  C  C413  1  0.48002942  0.76068400  0.90684594  1
  C  C414  1  0.46574547  0.76763692  0.51792577  1
  C  C415  1  0.32726021  0.85372470  0.73265936  1
  H  H416  1  0.36775235  0.79425260  0.89342241  1
  H  H417  1  0.47206978  0.85556819  0.82102034  1
  C  C418  1  0.38687220  0.84260903  0.74754558  1
  C  C419  1  0.36119593  0.97128518  0.50230984  1
  C  C420  1  0.40623673  0.89691740  0.86535782  1
  C  C421  1  0.42482856  0.97444942  0.77899446  1
  C  C422  1  0.45354441  0.78977647  0.98120789  1
  C  C423  1  0.40003723  0.95164135  0.69328681  1
  C  C424  1  0.38218292  0.80349958  0.56726941  1
  C  C425  1  0.45846995  0.96054913  0.87136049  1
  C  C426  1  0.41250347  0.81536899  0.66589995  1
  H  H427  1  0.29726250  0.83794867  0.67532449  1
  C  C428  1  0.37868628  0.96598487  0.59591542  1
  C  C429  1  0.34698797  0.90505820  0.85206826  1
  C  C430  1  0.39393372  0.80305074  0.96836167  1
  C  C431  1  0.47261947  0.80461920  0.68020538  1
  C  C432  1  0.30622803  0.88471923  0.78535512  1
  H  H433  1  0.39747341  0.92269117  0.70809252  1
  O  O434  1  0.49005249  0.90622884  0.60819714  1
  H  H435  1  0.47229007  0.96477827  0.51635436  1
  C  C436  1  0.57399346  0.13341411  0.20478227  1
  H  H437  1  0.55388008  0.03259889  0.06483217  1
  C  C438  1  0.58746110  0.22728674  0.39473954  1
  C  C439  1  0.52516589  0.23292794  0.39546363  1
  H  H440  1  0.62162433  0.12757085  0.21292088  1
  H  H441  1  0.56344824  0.15490796  0.26719126  1
  O  O442  1  0.51647520  0.08694497  0.46586824  1
  H  H443  1  0.55001856  0.10969641  0.24223108  1
  C  C444  1  0.61007594  0.19451938  0.40898462  1
  H  H445  1  0.65870009  0.19217783  0.40360307  1
  H  H446  1  0.67741606  0.15160330  0.37476947  1
  O  O447  1  0.56197362  0.14357240  0.09089547  1
  C  C448  1  0.57377293  0.16316821  0.43310366  1
  C  C449  1  0.65789154  0.12629911  0.40531901  1
  C  C450  1  0.51216503  0.17110854  0.44537464  1
  C  C451  1  0.59826997  0.12712441  0.43206258  1
  C  C452  1  0.69013301  0.09337125  0.41107867  1
  C  C453  1  0.56797047  0.09141165  0.45148166  1
  C  C454  1  0.66676532  0.06057705  0.45296114  1
  H  H455  1  0.50129350  0.02671820  0.44434063  1
  C  C456  1  0.60717674  0.06032272  0.47270659  1
  C  C457  1  0.50868947  0.02311888  0.05229328  1
  C  C458  1  0.51046470  0.15442026  0.06610141  1
  H  H459  1  0.69056422  0.03511704  0.46228455  1
  H  H460  1  0.61380727  0.25214768  0.38633695  1
  H  H461  1  0.72939370  0.32935795  0.30303471  1
  H  H462  1  0.66933768  0.41986811  0.19153624  1
  O  O463  1  0.50079669  0.33110582  0.10962545  1
  O  O464  1  0.53747337  0.29553278  0.36519175  1
  O  O465  1  0.64066438  0.30271273  0.02546246  1
  Cu  Cu466  1  0.55009453  0.31976759  0.23302069  1
  C  C467  1  0.50209851  0.26922510  0.38411172  1
  O  O468  1  0.58290409  0.45882681  0.29453988  1
  C  C469  1  0.62139328  0.48024720  0.29182322  1
  C  C470  1  0.66400842  0.31126742  0.11979348  1
  O  O471  1  0.62988818  0.32562925  0.19295444  1
  C  C472  1  0.68459549  0.47528169  0.25788929  1
  C  C473  1  0.70084291  0.44155983  0.20640942  1
  C  C474  1  0.72651412  0.30538309  0.13826863  1
  C  C475  1  0.58669417  0.02713663  0.53047907  1
  H  H476  1  0.53528745  0.09080684  0.64897380  1
  C  C477  1  0.51782213  0.09798623  0.73577678  1
  H  H478  1  0.67233205  0.01471886  0.62459953  1
  C  C479  1  0.62667988  0.00692093  0.60079465  1
  H  H480  1  0.55199653  0.10926511  0.80094803  1
  C  C481  1  0.53065285  0.01237432  0.50118783  1
  H  H482  1  0.58190188  0.46661716  0.51842880  1
  H  H483  1  0.59474634  0.48140379  0.93276042  1
  O  O484  1  0.61006860  0.35161920  0.66794666  1
  C  C485  1  0.60592362  0.40774269  0.75336580  1
  C  C486  1  0.64648650  0.42097760  0.67657143  1
  C  C487  1  0.60579951  0.46593717  0.85402643  1
  C  C488  1  0.58344795  0.43120581  0.84143277  1
  C  C489  1  0.66438119  0.45723136  0.68424994  1
  C  C490  1  0.64285579  0.48125250  0.76807276  1
  H  H491  1  0.69587347  0.46880854  0.62282147  1
  O  O492  1  0.52181430  0.30262913  0.95029496  1
  C  C493  1  0.55942242  0.48967739  0.56307575  1
  O  O494  1  0.55457066  0.35676351  0.82352007  1
  H  H495  1  0.55579201  0.48511903  0.65820936  1
  C  C496  1  0.59058718  0.36939062  0.74405626  1
  Cu  Cu497  1  0.59402755  0.32875326  0.92321279  1
  H  H498  1  0.54580284  0.42367702  0.90173812  1
  H  H499  1  0.66602450  0.40406333  0.61097644  1
  H  H500  1  0.73968441  0.49935210  0.68797701  1
  H  H501  1  0.73356012  0.27639373  0.97134703  1
  C  C502  1  0.65348411  0.64358451  0.42195654  1
  O  O503  1  0.68563574  0.65899918  0.34926887  1
  C  C504  1  0.59543637  0.62777415  0.39819111  1
  C  C505  1  0.57539936  0.63115328  0.28163176  1
  H  H506  1  0.60726113  0.64401351  0.21994228  1
  O  O507  1  0.60488446  0.71780462  0.15931619  1
  C  C508  1  0.62038638  0.55207079  0.08046697  1
  C  C509  1  0.57152475  0.70100172  0.08957163  1
  H  H510  1  0.66189080  0.55401225  0.02419956  1
  Cu  Cu511  1  0.58069169  0.72895373  0.29904907  1
  H  H512  1  0.68451136  0.67710341  0.11595178  1
  H  H513  1  0.73312368  0.61430075  0.23184897  1
  O  O514  1  0.73754256  0.57909380  0.43223409  1
  C  C515  1  0.52358930  0.61506484  0.25027710  1
  H  H516  1  0.61715767  0.57910714  0.11806743  1
  O  O517  1  0.60905103  0.51865152  0.32378522  1
  C  C518  1  0.55792686  0.61542470  0.48269064  1
  C  C519  1  0.51775911  0.53715050  0.08258734  1
  H  H520  1  0.56831159  0.51575258  0.34664522  1
  H  H521  1  0.71188607  0.52863875  0.31490949  1
  O  O522  1  0.54478384  0.73646979  0.43407490  1
  O  O523  1  0.51650313  0.70723407  0.08213313  1
  C  C524  1  0.65591079  0.66153390  0.05468672  1
  C  C525  1  0.59691592  0.67035456  0.03165331  1
  H  H526  1  0.62250418  0.53318253  0.15449548  1
  C  C527  1  0.56977800  0.54271408  0.00422132  1
  H  H528  1  0.53188043  0.53245402  0.17442369  1
  C  C529  1  0.72509626  0.50467326  0.27287278  1
  H  H530  1  0.72383770  0.62361575  0.00729804  1
  C  C531  1  0.50239679  0.60173873  0.45572309  1
  H  H532  1  0.50948498  0.61704491  0.15939264  1
  O  O533  1  0.51288975  0.91869986  0.09775284  1
  O  O534  1  0.58088468  0.96807415  0.12282406  1
  H  H535  1  0.72529965  0.88517989  0.24217181  1
  H  H536  1  0.73774777  0.95190853  0.13170808  1
  C  C537  1  0.73276417  0.89771792  0.06066642  1
  H  H538  1  0.57743805  0.85261148  0.19516590  1
  H  H539  1  0.65103942  0.84929581  0.04253091  1
  C  C540  1  0.71868017  0.82567008  0.15807844  1
  H  H541  1  0.66451524  0.93186466  0.13879624  1
  C  C542  1  0.59049502  0.82945574  0.42198837  1
  C  C543  1  0.53216108  0.96014384  0.10558613  1
  H  H544  1  0.70061559  0.81004574  0.44064044  1
  H  H545  1  0.52800951  0.78841488  0.10075696  1
  C  C546  1  0.73446553  0.81732275  0.27130838  1
  C  C547  1  0.63423235  0.83291534  0.32708521  1
  C  C548  1  0.61970311  0.84330542  0.21727659  1
  C  C549  1  0.66240000  0.84049313  0.13002806  1
  O  O550  1  0.53701125  0.84136825  0.40819665  1
  C  C551  1  0.70540024  0.93359626  0.08749841  1
  C  C552  1  0.69097333  0.82052264  0.35546005  1
  H  H553  1  0.69364950  0.94607738  0.00302561  1
  H  H554  1  0.55759123  0.60420608  0.83901952  1
  C  C555  1  0.58155928  0.62058355  0.89900251  1
  C  C556  1  0.66688010  0.57915849  0.84643668  1
  C  C557  1  0.64190602  0.61154967  0.91777429  1
  C  C558  1  0.63272705  0.54717252  0.83806020  1
  H  H559  1  0.61539400  0.68621201  0.87753379  1
  C  C560  1  0.63944895  0.69882801  0.80690247  1
  C  C561  1  0.68678697  0.68041319  0.75945818  1
  H  H562  1  0.69797713  0.65458640  0.79821750  1
  C  C563  1  0.61897732  0.73189792  0.75632896  1
  C  C564  1  0.71944840  0.69672750  0.66738141  1
  C  C565  1  0.70271548  0.73123752  0.62535203  1
  H  H566  1  0.54772567  0.68684126  0.71440929  1
  C  C567  1  0.71891609  0.52227138  0.73232187  1
  O  O568  1  0.57245405  0.54045428  0.89739487  1
  C  C569  1  0.72494272  0.58477351  0.80065886  1
  C  C570  1  0.55733839  0.73811012  0.80532375  1
  Cu  Cu571  1  0.72640640  0.60614625  0.56424166  1
  H  H572  1  0.57525132  0.61487723  0.57092606  1
  C  C573  1  0.55825227  0.64978659  0.95857511  1
  C  C574  1  0.66216001  0.52153692  0.77470956  1
  C  C575  1  0.65548744  0.74999725  0.67622083  1
  H  H576  1  0.72897070  0.74464833  0.56017645  1
  H  H577  1  0.51048559  0.65690039  0.96414879  1
  C  C578  1  0.52887304  0.70630688  0.76799614  1
  O  O579  1  0.67428670  0.64365490  0.52267893  1
  H  H580  1  0.74987516  0.61056788  0.81709457  1
  C  C581  1  0.67955541  0.63174079  0.99095991  1
  H  H582  1  0.58588158  0.51623973  0.55231374  1
  H  H583  1  0.61279372  0.84818576  0.73785723  1
  H  H584  1  0.63195473  0.95723580  0.70410038  1
  C  C585  1  0.53718023  0.92175255  0.64920696  1
  H  H586  1  0.64548762  0.77742893  0.65056099  1
  O  O587  1  0.56933157  0.90591669  0.71203678  1
  C  C588  1  0.65026450  0.83548837  0.78948521  1
  H  H589  1  0.54427797  0.77042674  0.62727224  1
  O  O590  1  0.56374421  0.80054822  0.88239701  1
  H  H591  1  0.72107843  0.79981065  0.87762042  1
  H  H592  1  0.66750069  0.85843322  0.83840898  1
  C  C593  1  0.51227490  0.97842301  0.54198793  1
  H  H594  1  0.67866866  0.76631284  0.95782162  1
  C  C595  1  0.63011175  0.80358564  0.86174163  1
  C  C596  1  0.60674341  0.97393482  0.64141296  1
  C  C597  1  0.53745822  0.76917656  0.86501730  1
  C  C598  1  0.55111370  0.95896421  0.61134863  1
  C  C599  1  0.67897727  0.78876233  0.89749007  1
  H  H600  1  0.68433070  0.82432624  0.73273831  1
  O  O601  1  0.73801404  0.88008416  0.96970903  1
  O  O602  1  0.60747935  0.81816116  0.51268829  1
  H  H603  1  0.50333545  0.81355084  0.75227558  1
  Cu  Cu604  1  0.50982438  0.87452166  0.50434846  1
  H  H605  1  0.83529597  0.19134034  0.26607451  1
  C  C606  1  0.86106415  0.19319422  0.34603038  1
  C  C607  1  0.87619407  0.22505274  0.39620510  1
  C  C608  1  0.94302896  0.10949374  0.18358053  1
  O  O609  1  0.94729925  0.08773851  0.38061150  1
  C  C610  1  0.87848295  0.09000358  0.37830630  1
  C  C611  1  0.84840094  0.12236417  0.37946009  1
  C  C612  1  0.87041252  0.02098708  0.36906644  1
  C  C613  1  0.84323047  0.05942998  0.37070551  1
  H  H614  1  0.89805230  0.09675061  0.17984167  1
  H  H615  1  0.90039878  0.03357699  0.16106681  1
  C  C616  1  0.91613421  0.02591880  0.06763918  1
  C  C617  1  0.75376326  0.09373741  0.37648911  1
  C  C618  1  0.78692191  0.12618109  0.36929110  1
  C  C619  1  0.78055982  0.05935050  0.36970448  1
  C  C620  1  0.87778896  0.15968847  0.39810631  1
  C  C621  1  0.97306936  0.09755717  0.29060987  1
  H  H622  1  0.93594007  0.13855427  0.19216513  1
  H  H623  1  0.76943565  0.15439121  0.36926414  1
  H  H624  1  0.86106295  0.24950991  0.35654114  1
  H  H625  1  0.96866231  0.10413429  0.10197650  1
  C  C626  1  0.98051564  0.03318648  0.04624678  1
  H  H627  1  0.95850698  0.18574590  0.28717890  1
  C  C628  1  0.90205144  0.01663071  0.47127079  1
  H  H629  1  0.75559874  0.03538038  0.36829333  1
  H  H630  1  0.99215855  0.02956968  0.22553897  1
  C  C631  1  0.91077133  0.22562823  0.49787125  1
  C  C632  1  0.91326533  0.16068843  0.49978868  1
  C  C633  1  0.99639554  0.35680125  0.22783270  1
  H  H634  1  0.99956696  0.27148177  0.43110160  1
  C  C635  1  0.75574487  0.31714102  0.23785798  1
  C  C636  1  0.79907273  0.46609981  0.19694461  1
  O  O637  1  0.95853750  0.25477084  0.20973355  1
  C  C638  1  0.78246346  0.49913397  0.24692267  1
  C  C639  1  0.96023997  0.47658781  0.14455348  1
  C  C640  1  0.87844044  0.42381729  0.19229578  1
  C  C641  1  0.90234033  0.34771016  0.13803689  1
  C  C642  1  0.97917014  0.43935602  0.14675734  1
  H  H643  1  0.77344327  0.41229449  0.13083611  1
  C  C644  1  0.75708539  0.28689938  0.04819290  1
  H  H645  1  0.91967730  0.48716444  0.39403350  1
  C  C646  1  0.84795384  0.29817593  0.15362496  1
  C  C647  1  0.95947646  0.29082291  0.20736908  1
  C  C648  1  0.94803074  0.37181280  0.17110747  1
  H  H649  1  0.86051723  0.35822120  0.10724544  1
  C  C650  1  0.91114345  0.31040341  0.16439138  1
  C  C651  1  0.75771639  0.43780689  0.16940946  1
  C  C652  1  0.81650612  0.31353522  0.24738611  1
  C  C653  1  0.93756491  0.41335544  0.17032939  1
  C  C654  1  0.81728142  0.28411085  0.05364078  1
  H  H655  1  0.84359028  0.32534426  0.32221921  1
  C  C656  1  0.90152526  0.48957772  0.15284903  1
  H  H657  1  0.84941398  0.40387855  0.23230909  1
  C  C658  1  0.86392728  0.46009501  0.18249239  1
  C  C659  1  0.99982519  0.31880913  0.23883845  1
  C  C660  1  0.93438083  0.19338071  0.54267536  1
  H  H661  1  0.90334776  0.04445665  0.51510580  1
  H  H662  1  0.92573609  0.13418521  0.53648935  1
  H  H663  1  0.96516859  0.19310238  0.61798083  1
  H  H664  1  0.91689445  0.00486635  0.80531828  1
  H  H665  1  0.88729785  0.03874643  0.99798294  1
  O  O666  1  0.90402312  0.28885076  0.51039418  1
  O  O667  1  0.97251402  0.33421844  0.71332705  1
  O  O668  1  0.95922078  0.26174946  0.63779258  1
  H  H669  1  0.81122922  0.49324333  0.77301963  1
  H  H670  1  0.90770096  0.47223777  0.91823427  1
  H  H671  1  0.93876986  0.40627369  0.96318748  1
  H  H672  1  0.82027752  0.47906743  0.99800425  1
  C  C673  1  0.91591844  0.46565042  0.73084404  1
  H  H674  1  0.94512948  0.38361281  0.58921760  1
  C  C675  1  0.94275881  0.39344327  0.77642049  1
  O  O676  1  0.96878020  0.34607571  0.89723420  1
  Cu  Cu677  1  0.99494616  0.30207039  0.93585902  1
  H  H678  1  0.92011143  0.45108437  0.55275111  1
  C  C679  1  0.93671575  0.40339970  0.66151305  1
  C  C680  1  0.92552580  0.26213213  0.54384934  1
  C  C681  1  0.93357995  0.41713185  0.87056935  1
  C  C682  1  0.91952826  0.45342578  0.84669201  1
  C  C683  1  0.95968748  0.35516455  0.79149508  1
  C  C684  1  0.92469025  0.44077602  0.64316513  1
  H  H685  1  0.84462308  0.27337933  0.98627427  1
  C  C686  1  0.89865586  0.62712057  0.20058600  1
  C  C687  1  0.87575414  0.60075051  0.27397926  1
  H  H688  1  0.94700900  0.63282534  0.19881242  1
  H  H689  1  0.90791333  0.58426966  0.32151833  1
  C  C690  1  0.98639167  0.64272998  0.38591089  1
  C  C691  1  0.86267293  0.64770130  0.12644325  1
  O  O692  1  0.98286587  0.69712173  0.28819703  1
  C  C693  1  0.81524526  0.59753542  0.30245771  1
  H  H694  1  0.81563919  0.71331253  0.12327144  1
  C  C695  1  0.88410439  0.67705090  0.04891543  1
  H  H696  1  0.90963056  0.67431241  0.42268579  1
  O  O697  1  0.88292380  0.52557412  0.14170835  1
  C  C698  1  0.93389874  0.64990519  0.44192039  1
  H  H699  1  0.96455094  0.55011060  0.06913286  1
  C  C700  1  0.84052814  0.53188362  0.07198612  1
  C  C701  1  0.80233223  0.63955053  0.14268243  1
  O  O702  1  0.82574610  0.55434712  0.44460418  1
  C  C703  1  0.85008411  0.71011493  0.05936001  1
  C  C704  1  0.79260651  0.57506927  0.39993051  1
  C  C705  1  0.77960410  0.61677012  0.22738111  1
  H  H706  1  0.75452712  0.50555688  0.03569670  1
  O  O707  1  0.76521446  0.72721906  0.33013339  1
  C  C708  1  0.94690132  0.51222744  0.40427020  1
  H  H709  1  0.91685820  0.53477696  0.43206465  1
  H  H710  1  0.77328551  0.57349279  0.08959234  1
  C  C711  1  0.81221495  0.56788861  0.04092900  1
  Cu  Cu712  1  0.75537646  0.68059115  0.37984284  1
  H  H713  1  0.77254327  0.65258534  0.08315101  1
  H  H714  1  0.84400794  0.58881606  0.06229264  1
  H  H715  1  0.96483307  0.51919198  0.31671528  1
  C  C716  1  0.99764764  0.50609604  0.48894676  1
  H  H717  1  0.81584205  0.52051083  0.27021583  1
  H  H718  1  0.98888172  0.98482268  0.15824348  1
  O  O719  1  0.81715284  0.97805124  0.23183257  1
  H  H720  1  0.96297160  0.78263461  0.11207641  1
  H  H721  1  0.82347191  0.83237330  0.47397171  1
  C  C722  1  0.77569334  0.75123372  0.40537401  1
  C  C723  1  0.76622478  0.81841646  0.06668482  1
  C  C724  1  0.79630980  0.78469025  0.07576281  1
  H  H725  1  0.98593301  0.85052239  0.23023655  1
  H  H726  1  0.78647198  0.91361173  0.20474111  1
  H  H727  1  0.90220014  0.95729217  0.47359075  1
  C  C728  1  0.91630750  0.90328597  0.13684465  1
  O  O729  1  0.93747177  0.82081618  0.37088369  1
  H  H730  1  0.90144532  0.87580736  0.12530721  1
  H  H731  1  0.77719115  0.80686135  0.29122921  1
  H  H732  1  0.78659896  0.76454944  0.14129468  1
  H  H733  1  0.90673890  0.99632064  0.06540362  1
  H  H734  1  0.79161237  0.86537729  0.16908049  1
  C  C735  1  0.85305642  0.98995905  0.29808056  1
  C  C736  1  0.78640018  0.77645986  0.46835825  1
  H  H737  1  0.88391605  0.96312490  0.28676212  1
  O  O738  1  0.96164102  0.93260388  0.31033410  1
  C  C739  1  0.98852826  0.81666632  0.38417042  1
  C  C740  1  0.95744504  0.90885812  0.24200854  1
  H  H741  1  0.87721644  0.92127615  0.14496791  1
  H  H742  1  0.94079207  0.91173545  0.05797118  1
  C  C743  1  0.76124322  0.89031029  0.17597216  1
  C  C744  1  0.88361753  0.61386052  0.85406717  1
  C  C745  1  0.86041824  0.57277195  0.66343082  1
  C  C746  1  0.91511783  0.73381197  0.90783813  1
  C  C747  1  0.81889219  0.55117750  0.72295485  1
  H  H748  1  0.84402766  0.59960426  0.65927889  1
  C  C749  1  0.93476876  0.52585882  0.63938235  1
  C  C750  1  0.91563295  0.56158102  0.61891751  1
  H  H751  1  0.93651236  0.67810060  0.69268877  1
  C  C752  1  0.83933976  0.51556375  0.73786405  1
  C  C753  1  0.94460513  0.69884062  0.90044444  1
  C  C754  1  0.94317408  0.61077590  0.91316521  1
  H  H755  1  0.89176361  0.62800535  0.77219346  1
  C  C756  1  0.86781581  0.73660504  0.98359559  1
  H  H757  1  0.85690305  0.63380466  0.90221081  1
  C  C758  1  0.98299158  0.68158586  0.71187980  1
  H  H759  1  0.86086670  0.58723358  0.84435001  1
  H  H760  1  0.86882401  0.62684675  0.55558314  1
  C  C761  1  0.89854340  0.50605251  0.70795965  1
  H  H762  1  0.91942963  0.55716506  0.91593860  1
  C  C763  1  0.95680741  0.57197855  0.88375914  1
  C  C764  1  0.96284209  0.74643328  0.54528051  1
  H  H765  1  0.95747701  0.56783651  0.78940123  1
  C  C766  1  0.93233840  0.67069933  0.97575857  1
  O  O767  1  0.91477836  0.73415612  0.53725518  1
  H  H768  1  0.79130602  0.56925533  0.95427406  1
  H  H769  1  0.79885197  0.52041477  0.91192727  1
  C  C770  1  0.75120334  0.55422985  0.75483711  1
  O  O771  1  0.77038893  0.64239412  0.63537125  1
  C  C772  1  0.76338233  0.67607908  0.60845638  1
  C  C773  1  0.94215090  0.59148718  0.53941457  1
  O  O774  1  0.79124384  0.68783549  0.52373431  1
  C  C775  1  0.91165575  0.62389492  0.51343702  1
  O  O776  1  0.99694535  0.51145580  0.59200469  1
  O  O777  1  0.96622800  0.63428043  0.97580491  1
  H  H778  1  0.99876000  0.56280423  0.92633984  1
  C  C779  1  0.99772473  0.69349416  0.82172568  1
  C  C780  1  0.80169198  0.50904786  0.99925536  1
  H  H781  1  0.92912202  0.75683812  0.85547914  1
  H  H782  1  0.96259910  0.87712864  0.50196224  1
  C  C783  1  0.90969133  0.98159338  0.52504503  1
  C  C784  1  0.83925843  0.79907448  0.89556634  1
  C  C785  1  0.82092808  0.85636127  0.79585649  1
  C  C786  1  0.94061843  0.82431844  0.75503998  1
  C  C787  1  0.79396274  0.81298587  0.64121288  1
  C  C788  1  0.80811690  0.83168778  0.90263545  1
  C  C789  1  0.76984301  0.84543823  0.98109917  1
  C  C790  1  0.83194048  0.77373278  0.98495414  1
  C  C791  1  0.90703985  0.98085202  0.64269716  1
  C  C792  1  0.98691577  0.88587475  0.85473418  1
  C  C793  1  0.84457207  0.89081100  0.81852009  1
  H  H794  1  0.90660355  0.84473974  0.78032884  1
  O  O795  1  0.86322337  0.91581806  0.75998107  1
  C  C796  1  0.81382110  0.84670483  0.68019575  1
  C  C797  1  0.87988758  0.95183500  0.83176613  1
  H  H798  1  0.85373064  0.89680740  0.91191955  1
  C  C799  1  0.97584728  0.77383469  0.64222507  1
  H  H800  1  0.77669496  0.79191552  0.69784213  1
  C  C801  1  0.90538361  0.97987060  0.76128950  1
  H  H802  1  0.86887044  0.79084281  0.82654957  1
  H  H803  1  0.95920693  0.89109335  0.78295655  1
  O  O804  1  0.86968692  0.95418524  0.93056485  1
  H  H805  1  0.82898839  0.86758612  0.61942117  1
  C  C806  1  0.92970081  0.79586914  0.67776087  1
  H  H807  1  0.88498329  0.78966572  0.64865479  1
  C  C808  1  0.99831381  0.82199454  0.80021397  1
  C  C809  1  0.80147505  0.81064055  0.52375107  1
