# generated using pymatgen
data_CuH16C23O5
_symmetry_space_group_name_H-M   'P 1'
_cell_length_a   30.94211461
_cell_length_b   20.85847579
_cell_length_c   14.94175200
_cell_angle_alpha   90.00000000
_cell_angle_beta   90.00000000
_cell_angle_gamma   90.00000000
_symmetry_Int_Tables_number   1
_chemical_formula_structural   CuH16C23O5
_chemical_formula_sum   'Cu18 H288 C414 O90'
_cell_volume   9643.48665283
_cell_formula_units_Z   18
loop_
 _symmetry_equiv_pos_site_id
 _symmetry_equiv_pos_as_xyz
  1  'x, y, z'
loop_
 _atom_site_type_symbol
 _atom_site_label
 _atom_site_symmetry_multiplicity
 _atom_site_fract_x
 _atom_site_fract_y
 _atom_site_fract_z
 _atom_site_occupancy
  Cu  Cu0  1  0.09836944  0.31056014  0.23113705  1
  C  C1  1  0.22364864  0.06534017  0.17945260  1
  C  C2  1  0.19518999  0.29129381  0.48734796  1
  C  C3  1  0.02820302  0.11695865  0.48874546  1
  C  C4  1  0.14263015  0.46542742  0.14576198  1
  C  C5  1  0.14995357  0.29265176  0.47708332  1
  O  O6  1  0.04272837  0.02371535  0.19816692  1
  Cu  Cu7  1  0.07984676  0.19729165  0.17867290  1
  O  O8  1  0.14117341  0.17993038  0.18022728  1
  O  O9  1  0.06467149  0.12071156  0.23453918  1
  O  O10  1  0.14914707  0.26502256  0.26319955  1
  C  C11  1  0.13910019  0.42119916  0.29570120  1
  C  C12  1  0.16589385  0.22270462  0.21017436  1
  H  H13  1  0.07744727  0.44007703  0.36319062  1
  H  H14  1  0.08758103  0.01597928  0.07013011  1
  C  C15  1  0.09527426  0.44513791  0.30058846  1
  C  C16  1  0.18161219  0.04205379  0.15209295  1
  H  H17  1  0.21340428  0.31994596  0.26899851  1
  C  C18  1  0.22800761  0.09819954  0.26216288  1
  C  C19  1  0.04048261  0.08003079  0.18950537  1
  H  H20  1  0.11912134  0.09667470  0.46119290  1
  O  O21  1  0.08365092  0.27212540  0.12169065  1
  C  C22  1  0.06398773  0.28568239  0.04367272  1
  C  C23  1  0.21078354  0.23402723  0.18848761  1
  O  O24  1  0.02699908  0.25215295  0.30331396  1
  C  C25  1  0.20280790  0.38231707  0.37818117  1
  C  C26  1  0.16219284  0.43305564  0.21689019  1
  H  H27  1  0.20965459  0.14508190  0.10366832  1
  C  C28  1  0.15845536  0.37964642  0.37159693  1
  H  H29  1  0.19211834  0.04621942  0.42017855  1
  C  C30  1  0.22880130  0.13008930  0.34441419  1
  C  C31  1  0.12005054  0.05145637  0.42590248  1
  H  H32  1  0.05135547  0.03933673  0.40861651  1
  O  O33  1  0.23280532  0.43310561  0.33066850  1
  H  H34  1  0.14732465  0.25759758  0.05947651  1
  C  C35  1  0.22003851  0.33465068  0.43470743  1
  H  H36  1  0.19520703  0.41494663  0.20508417  1
  C  C37  1  0.13016667  0.33483400  0.41710581  1
  C  C38  1  0.22903488  0.18893630  0.12427957  1
  O  O39  1  0.02762310  0.30097904  0.04073738  1
  C  C40  1  0.02651070  0.16637433  0.42280147  1
  H  H41  1  0.09554326  0.33559052  0.40380679  1
  C  C42  1  0.00931152  0.10458953  0.11822616  1
  H  H43  1  0.17699883  0.49212464  0.44953327  1
  C  C44  1  0.02564519  0.20879901  0.36559806  1
  H  H45  1  0.03952022  0.49077469  0.23036317  1
  H  H46  1  0.16126837  0.48085176  0.08582634  1
  H  H47  1  0.15294183  0.05432547  0.18955962  1
  H  H48  1  0.20926237  0.17347833  0.36183301  1
  C  C49  1  0.09985694  0.48509925  0.15073632  1
  C  C50  1  0.07452382  0.47612292  0.22801387  1
  C  C51  1  0.23128793  0.28942615  0.22177127  1
  H  H52  1  0.00193770  0.00012872  0.38968802  1
  C  C53  1  0.02587848  0.46281654  0.47618815  1
  C  C54  1  0.23144664  0.48895057  0.35571909  1
  H  H55  1  0.00380900  0.19978239  0.18519536  1
  C  C56  1  0.16018242  0.02032651  0.40551108  1
  C  C57  1  0.08367600  0.01889929  0.39715257  1
  C  C58  1  0.18297052  0.00005835  0.07711341  1
  H  H59  1  0.12440782  0.38786656  0.01838175  1
  C  C60  1  0.15190143  0.07629377  0.63149000  1
  H  H61  1  0.00357918  0.34681488  0.89749143  1
  C  C62  1  0.00913088  0.43365864  0.81652080  1
  C  C63  1  0.11275845  0.40499224  0.95074057  1
  H  H64  1  0.07976456  0.45910247  0.71050330  1
  C  C65  1  0.02476822  0.18097504  0.80063934  1
  C  C66  1  0.19658298  0.07744877  0.63627671  1
  H  H67  1  0.09199386  0.02651914  0.61300019  1
  H  H68  1  0.07480993  0.30839430  0.57911481  1
  C  C69  1  0.12650763  0.13882014  0.61369826  1
  H  H70  1  0.21462080  0.12402283  0.62593276  1
  C  C71  1  0.08504671  0.15068726  0.65263988  1
  C  C72  1  0.00528500  0.07099515  0.81825666  1
  C  C73  1  0.06801791  0.21142701  0.63254976  1
  H  H74  1  0.04950337  0.29118438  0.86423584  1
  H  H75  1  0.09284804  0.37656041  0.60554655  1
  C  C76  1  0.04163729  0.41147294  0.53002374  1
  C  C77  1  0.12820773  0.24379691  0.54019355  1
  H  H78  1  0.10550433  0.27205450  0.73961012  1
  C  C79  1  0.11353491  0.26879316  0.81281894  1
  C  C80  1  0.15756062  0.25633828  0.83110538  1
  H  H81  1  0.18015875  0.17069641  0.52946541  1
  O  O82  1  0.21813744  0.43755328  0.84300371  1
  C  C83  1  0.19952586  0.06839624  0.88565431  1
  C  C84  1  0.16968879  0.25168459  0.92407577  1
  O  O85  1  0.06118172  0.09772183  0.70703928  1
  C  C86  1  0.05756967  0.43294799  0.84577120  1
  H  H87  1  0.18946425  0.08086416  0.95579800  1
  C  C88  1  0.15460980  0.13255704  0.80796868  1
  C  C89  1  0.08287752  0.27825983  0.87902252  1
  C  C90  1  0.08974926  0.44632152  0.78089895  1
  C  C91  1  0.06919655  0.41029871  0.93315703  1
  H  H92  1  0.13590303  0.14861895  0.86749429  1
  H  H93  1  0.03661815  0.33047023  0.67467268  1
  C  C94  1  0.08992109  0.25883766  0.58177881  1
  C  C95  1  0.03492805  0.11409660  0.76486635  1
  C  C96  1  0.16770532  0.42074607  0.60843173  1
  C  C97  1  0.19350520  0.25885454  0.75778178  1
  C  C98  1  0.14568713  0.42227032  0.88727191  1
  H  H99  1  0.16102586  0.35057573  0.72732098  1
  C  C100  1  0.20264528  0.12721439  0.82875071  1
  C  C101  1  0.08223870  0.42135092  0.56956840  1
  H  H102  1  0.02978958  0.02446717  0.59658618  1
  C  C103  1  0.22240356  0.34194009  0.65880224  1
  C  C104  1  0.14877808  0.18338663  0.55992556  1
  H  H105  1  0.15287353  0.16827133  0.75374265  1
  C  C106  1  0.10546330  0.48031893  0.57170881  1
  H  H107  1  0.14730736  0.37818001  0.59433385  1
  C  C108  1  0.19277408  0.41973136  0.90416436  1
  C  C109  1  0.12522298  0.02017704  0.63186871  1
  C  C110  1  0.20983126  0.41226399  0.63808261  1
  C  C111  1  0.13420748  0.44091028  0.80025267  1
  H  H112  1  0.14131114  0.08885639  0.77808228  1
  C  C113  1  0.18896983  0.31926932  0.71565911  1
  C  C114  1  0.14949339  0.48232859  0.61386559  1
  H  H115  1  0.17342178  0.03302600  0.86266151  1
  H  H116  1  0.04344666  0.22076162  0.77314220  1
  H  H117  1  0.00803038  0.08084978  0.89411960  1
  H  H118  1  0.20415229  0.24222954  0.93822862  1
  H  H119  1  0.02743182  0.36368144  0.53429532  1
  C  C120  1  0.23624509  0.46398806  0.66515833  1
  C  C121  1  0.22882776  0.21864532  0.74366357  1
  C  C122  1  0.02045159  0.23078244  0.63995992  1
  H  H123  1  0.02490916  0.17883827  0.87764317  1
  H  H124  1  0.15944333  0.45362558  0.74865490  1
  O  O125  1  0.22970476  0.04219272  0.65044584  1
  H  H126  1  0.20764545  0.26064730  0.53974337  1
  O  O127  1  0.20825575  0.40117315  0.97991001  1
  C  C128  1  0.09560948  0.27529331  0.96837100  1
  H  H129  1  0.04477648  0.40020565  0.98331258  1
  O  O130  1  0.23424198  0.15725322  0.80203105  1
  C  C131  1  0.13824133  0.25974712  0.98957170  1
  C  C132  1  0.01012876  0.29805707  0.65459175  1
  H  H133  1  0.23224794  0.04336285  0.88900664  1
  H  H134  1  0.00987206  0.01936978  0.80794399  1
  H  H135  1  0.05686141  0.11363887  0.52946888  1
  C  C136  1  0.04358555  0.69364317  0.34273454  1
  C  C137  1  0.00248263  0.94970717  0.37079012  1
  H  H138  1  0.12968314  0.57662737  0.19508258  1
  C  C139  1  0.02048397  0.92417155  0.04333148  1
  C  C140  1  0.00900144  0.65630291  0.38207949  1
  H  H141  1  0.10091638  0.72424749  0.07958430  1
  O  O142  1  0.14804796  0.68604369  0.34262533  1
  H  H143  1  0.18992572  0.80164343  0.13872022  1
  H  H144  1  0.20897141  0.83445502  0.37628699  1
  C  C145  1  0.13678227  0.75775400  0.48478203  1
  H  H146  1  0.22717657  0.78928433  0.27107909  1
  C  C147  1  0.20482014  0.52387393  0.42484990  1
  C  C148  1  0.04642724  0.52252854  0.48191700  1
  H  H149  1  0.07533711  0.72003903  0.21829811  1
  H  H150  1  0.18440546  0.60360110  0.21482306  1
  H  H151  1  0.20391701  0.95184168  0.20238576  1
  H  H152  1  0.15941211  0.53764557  0.27939006  1
  C  C153  1  0.20098311  0.81625200  0.30637947  1
  H  H154  1  0.13164248  0.80693481  0.15379261  1
  C  C155  1  0.13452716  0.63365925  0.31472290  1
  H  H156  1  0.03276169  0.56390097  0.44648562  1
  C  C157  1  0.04715143  0.69342496  0.24780467  1
  H  H158  1  0.07223330  0.82047158  0.32862965  1
  C  C159  1  0.14374594  0.95744692  0.04727161  1
  C  C160  1  0.16135118  0.96245652  0.35979825  1
  H  H161  1  0.14635174  0.62167017  0.07436498  1
  C  C162  1  0.16256233  0.79258111  0.18627134  1
  C  C163  1  0.04349323  0.91865203  0.35285542  1
  C  C164  1  0.20601322  0.93769749  0.34893862  1
  C  C165  1  0.16449249  0.83229667  0.27114327  1
  O  O166  1  0.12240980  0.87187568  0.29588444  1
  C  C167  1  0.11960325  0.72510475  0.41302639  1
  C  C168  1  0.08249446  0.95666601  0.35891404  1
  H  H169  1  0.01446882  0.91220231  0.19541130  1
  C  C170  1  0.07706047  0.52570113  0.07993827  1
  C  C171  1  0.12208266  0.92762327  0.33401786  1
  C  C172  1  0.07502321  0.72690120  0.40811287  1
  H  H173  1  0.22572847  0.53844201  0.48397739  1
  H  H174  1  0.10237966  0.53972583  0.34650649  1
  C  C175  1  0.04577360  0.75842595  0.46957138  1
  C  C176  1  0.09934688  0.97065950  0.04827245  1
  H  H177  1  0.16149478  0.74147130  0.19443250  1
  H  H178  1  0.06942757  0.59621243  0.28423085  1
  C  C179  1  0.15393991  0.58580081  0.24892066  1
  C  C180  1  0.21374654  0.71492811  0.46873085  1
  O  O181  1  0.20589478  0.56166076  0.04676557  1
  C  C182  1  0.04249243  0.85058753  0.32929014  1
  C  C183  1  0.21921192  0.98626117  0.03004945  1
  H  H184  1  0.20314211  0.67592525  0.42479892  1
  C  C185  1  0.09501711  0.59445111  0.33681756  1
  H  H186  1  0.22953949  0.93714789  0.49061003  1
  H  H187  1  0.01123130  0.75864311  0.46864461  1
  O  O188  1  0.09822899  0.53622948  0.01427435  1
  O  O189  1  0.03967738  0.55196687  0.09679373  1
  H  H190  1  0.08174044  0.61116854  0.40258575  1
  C  C191  1  0.22325107  0.93534678  0.25869534  1
  C  C192  1  0.15850936  0.89525103  0.02224734  1
  C  C193  1  0.23693907  0.92533293  0.42011762  1
  C  C194  1  0.01906838  0.66290637  0.19287677  1
  H  H195  1  0.02735098  0.66464348  0.11866684  1
  H  H196  1  0.18989932  0.57089665  0.39283044  1
  C  C197  1  0.08466486  0.85324842  0.03160562  1
  C  C198  1  0.07049521  0.91786167  0.03877565  1
  C  C199  1  0.00411927  0.82003252  0.31695902  1
  C  C200  1  0.15684133  0.66742965  0.04060815  1
  H  H201  1  0.00537309  0.65433918  0.45443737  1
  H  H202  1  0.19200516  0.88445580  0.01513527  1
  C  C203  1  0.13367176  0.72364391  0.04362436  1
  H  H204  1  0.24196855  0.57793858  0.27097417  1
  H  H205  1  0.00167893  0.77243719  0.28662339  1
  O  O206  1  0.04891088  0.79461240  0.02608838  1
  C  C207  1  0.12762029  0.84471898  0.01409090  1
  H  H208  1  0.05098027  0.67624480  0.74288627  1
  C  C209  1  0.15374798  0.70371529  0.72263251  1
  C  C210  1  0.24548738  0.82843013  0.55769142  1
  O  O211  1  0.15199818  0.84104949  0.73830308  1
  H  H212  1  0.20184855  0.81840287  0.91116624  1
  H  H213  1  0.05712226  0.77702425  0.81638926  1
  C  C214  1  0.17611787  0.62594396  0.81460149  1
  H  H215  1  0.21812680  0.95615809  0.96832904  1
  H  H216  1  0.21166979  0.63704757  0.81856603  1
  C  C217  1  0.03978828  0.83867796  0.59901702  1
  C  C218  1  0.18126546  0.94419889  0.69239808  1
  H  H219  1  0.21194812  0.86049969  0.75850263  1
  H  H220  1  0.10512809  0.79530911  0.88036244  1
  C  C221  1  0.05531340  0.63547024  0.69940055  1
  H  H222  1  0.05570758  0.53276675  0.87052225  1
  H  H223  1  0.04221279  0.66046205  0.96219703  1
  C  C224  1  0.15969813  0.64138137  0.71952799  1
  H  H225  1  0.01247847  0.92658653  0.89481016  1
  H  H226  1  0.10179080  0.54761047  0.81053771  1
  H  H227  1  0.08126636  0.61567976  0.85150981  1
  C  C228  1  0.04089968  0.57381792  0.74086538  1
  H  H229  1  0.03921038  0.75538456  0.69191451  1
  C  C230  1  0.20887221  0.71523218  0.94212263  1
  C  C231  1  0.22412282  0.97043284  0.68622415  1
  H  H232  1  0.21305464  0.65228835  0.61004857  1
  C  C233  1  0.02631472  0.80363515  0.67587721  1
  H  H234  1  0.09114958  0.63617000  0.68648700  1
  H  H235  1  0.14024441  0.72922494  0.66307976  1
  C  C236  1  0.17147032  0.53448714  0.65091632  1
  H  H237  1  0.12624381  0.83623655  0.58092969  1
  C  C238  1  0.18067916  0.87891017  0.73030863  1
  H  H239  1  0.17758075  0.85525665  0.55998055  1
  H  H240  1  0.09814735  0.58054962  0.54454153  1
  H  H241  1  0.16074604  0.73515529  0.78242850  1
  C  C242  1  0.06748481  0.80125187  0.52852308  1
  C  C243  1  0.07766117  0.76280215  0.87482098  1
  C  C244  1  0.20165654  0.81808172  0.54502252  1
  O  O245  1  0.00738656  0.54516633  0.72184433  1
  H  H246  1  0.11682616  0.91906613  0.66525967  1
  C  C247  1  0.13884051  0.96092560  0.66371416  1
  H  H248  1  0.03949891  0.64431716  0.63455182  1
  O  O249  1  0.15074355  0.59284081  0.65479795  1
  C  C250  1  0.04854742  0.76312069  0.95692280  1
  C  C251  1  0.18758843  0.77608593  0.94667132  1
  H  H252  1  0.15760619  0.64677943  0.87037488  1
  H  H253  1  0.17087910  0.57510563  0.83064697  1
  C  C254  1  0.24008806  0.63932105  0.65675022  1
  C  C255  1  0.11193047  0.80031128  0.53821542  1
  C  C256  1  0.21677008  0.52413617  0.66623765  1
  C  C257  1  0.06962227  0.56683407  0.82169454  1
  C  C258  1  0.01849211  0.89599328  0.57559308  1
  H  H259  1  0.08959566  0.71301496  0.85949102  1
  C  C260  1  0.02232759  0.70309907  0.93915538  1
  H  H261  1  0.23999507  0.71125733  0.90304805  1
  C  C262  1  0.24909901  0.57716182  0.69046361  1
  C  C263  1  0.18596085  0.76110252  0.50519588  1
  C  C264  1  0.14926443  0.77847981  0.99919003  1
  C  C265  1  0.08292215  0.53447987  0.53493389  1
  H  H266  1  0.01279733  0.69564047  0.86661959  1
  H  H267  1  0.02791960  0.91887589  0.51301042  1
  C  C268  1  0.21952286  0.59875399  0.99338457  1
  C  C269  1  0.19451735  0.66071473  0.98778518  1
  H  H270  1  0.40052578  0.05908658  0.25273502  1
  C  C271  1  0.32472302  0.02695522  0.39727390  1
  C  C272  1  0.27195098  0.19602414  0.10865145  1
  C  C273  1  0.40053465  0.45109128  0.04909132  1
  H  H274  1  0.46917270  0.33221223  0.12989495  1
  C  C275  1  0.48714775  0.43413384  0.10420970  1
  C  C276  1  0.26785196  0.32140403  0.44953578  1
  C  C277  1  0.28849237  0.05790698  0.35699254  1
  C  C278  1  0.35631744  0.00003322  0.42857501  1
  H  H279  1  0.27719628  0.41577736  0.47542581  1
  C  C280  1  0.29520356  0.24475995  0.15738919  1
  C  C281  1  0.35775908  0.30435988  0.46264101  1
  C  C282  1  0.29698615  0.37197883  0.46767131  1
  C  C283  1  0.41643262  0.38940862  0.07886115  1
  O  O284  1  0.41541937  0.22780392  0.45608670  1
  C  C285  1  0.48957812  0.21273914  0.02269759  1
  H  H286  1  0.28006893  0.03854239  0.29210843  1
  C  C287  1  0.43411248  0.23965629  0.17550292  1
  H  H288  1  0.29379900  0.33167459  0.24496618  1
  C  C289  1  0.34317398  0.05792076  0.16179591  1
  C  C290  1  0.25936853  0.01207642  0.06196748  1
  H  H291  1  0.47046347  0.23427198  0.19001928  1
  C  C292  1  0.36844056  0.22227432  0.08008015  1
  H  H293  1  0.40446434  0.36574363  0.33494945  1
  C  C294  1  0.40472397  0.28919094  0.46709071  1
  H  H295  1  0.37894742  0.13920171  0.22256717  1
  H  H296  1  0.34474541  0.20359593  0.42241423  1
  C  C297  1  0.28658858  0.25948501  0.43815621  1
  H  H298  1  0.43095480  0.49933183  0.19919062  1
  H  H299  1  0.38795602  0.43279039  0.26699278  1
  C  C300  1  0.38426517  0.08972983  0.19599994  1
  C  C301  1  0.34217691  0.36769566  0.47343010  1
  C  C302  1  0.36031719  0.25241888  0.24168223  1
  C  C303  1  0.34354225  0.23772761  0.15102602  1
  C  C304  1  0.33130954  0.25123874  0.44010754  1
  C  C305  1  0.45919582  0.38023712  0.10632290  1
  H  H306  1  0.34031761  0.26393282  0.30174673  1
  C  C307  1  0.40394202  0.25056756  0.23700284  1
  C  C308  1  0.41245005  0.22591647  0.08986215  1
  C  C309  1  0.45847414  0.42403780  0.28216839  1
  C  C310  1  0.27581669  0.29306124  0.21310391  1
  C  C311  1  0.26482753  0.04771987  0.13444186  1
  H  H312  1  0.28974241  0.15930881  0.07336739  1
  H  H313  1  0.40915745  0.44325565  0.38313307  1
  O  O314  1  0.30401978  0.07467564  0.16655077  1
  C  C315  1  0.41281249  0.41555168  0.31613354  1
  H  H316  1  0.26668133  0.21897850  0.41844469  1
  C  C317  1  0.45474520  0.49483288  0.25876406  1
  H  H318  1  0.39335723  0.35056582  0.09178382  1
  O  O319  1  0.49003754  0.38859159  0.28005567  1
  C  C320  1  0.44357251  0.20255923  0.01962238  1
  Cu  Cu321  1  0.46725016  0.18667406  0.47727088  1
  C  C322  1  0.35536593  0.45777661  0.02339454  1
  C  C323  1  0.43232991  0.49908300  0.03944435  1
  O  O324  1  0.32821205  0.41361707  0.03592825  1
  H  H325  1  0.40837881  0.10010014  0.14258733  1
  C  C326  1  0.47427887  0.49410851  0.06997731  1
  H  H327  1  0.27520629  0.13110661  0.45944011  1
  O  O328  1  0.48216579  0.10714805  0.29840143  1
  H  H329  1  0.36227176  0.40957832  0.48161810  1
  O  O330  1  0.48435150  0.20106367  0.35982034  1
  C  C331  1  0.26708882  0.10940550  0.39438550  1
  C  C332  1  0.49699245  0.15886921  0.29830924  1
  H  H333  1  0.38608556  0.00786101  0.05771701  1
  C  C334  1  0.36800486  0.00167121  0.12424300  1
  Cu  Cu335  1  0.26771804  0.40763059  0.00582733  1
  O  O336  1  0.43232727  0.32761714  0.48306287  1
  H  H337  1  0.37294400  0.34459874  0.94293012  1
  C  C338  1  0.45774994  0.16686569  0.86581255  1
  C  C339  1  0.46106869  0.48946882  0.68653145  1
  H  H340  1  0.35396677  0.06721269  0.69735432  1
  H  H341  1  0.28496342  0.11407013  0.71627054  1
  C  C342  1  0.38314656  0.15703570  0.64631446  1
  O  O343  1  0.43677476  0.07791503  0.67452437  1
  C  C344  1  0.38490658  0.29721651  0.91229533  1
  H  H345  1  0.46969957  0.47206572  0.91365583  1
  C  C346  1  0.42739095  0.13127471  0.63817479  1
  H  H347  1  0.39152514  0.31055058  0.84274138  1
  H  H348  1  0.40156005  0.46497077  0.61264834  1
  H  H349  1  0.39485437  0.15826865  0.92779260  1
  C  C350  1  0.39662345  0.44453814  0.75333355  1
  H  H351  1  0.27071027  0.45633424  0.68221461  1
  H  H352  1  0.37559108  0.05376491  0.86541550  1
  O  O353  1  0.33572968  0.42268972  0.66116365  1
  H  H354  1  0.39261604  0.42863710  0.89261062  1
  H  H355  1  0.29509916  0.22316820  0.83913616  1
  H  H356  1  0.40686346  0.25277188  0.60862810  1
  C  C357  1  0.33043568  0.24388925  0.83600056  1
  C  C358  1  0.38096798  0.22147692  0.62972092  1
  H  H359  1  0.32405575  0.28824317  0.79631777  1
  H  H360  1  0.28414970  0.31520621  0.58916864  1
  Cu  Cu361  1  0.27628087  0.41067623  0.83077052  1
  C  C362  1  0.30160099  0.21264148  0.66557742  1
  C  C363  1  0.33963558  0.24647674  0.64154322  1
  H  H364  1  0.33525775  0.29733409  0.62859698  1
  C  C365  1  0.41332565  0.44659888  0.83956630  1
  C  C366  1  0.35329995  0.24241763  0.92377101  1
  H  H367  1  0.34818203  0.21043157  0.79025898  1
  C  C368  1  0.34826827  0.11787919  0.67775661  1
  C  C369  1  0.35217708  0.41700256  0.73324572  1
  C  C370  1  0.42965198  0.17257114  0.93751793  1
  C  C371  1  0.30909818  0.14727664  0.68632259  1
  O  O372  1  0.45470677  0.16698784  0.59663889  1
  H  H373  1  0.44878749  0.14945962  0.80054023  1
  C  C374  1  0.25805736  0.30379810  0.63694335  1
  O  O375  1  0.33393435  0.39493056  0.80396227  1
  C  C376  1  0.32618835  0.03986446  0.96465863  1
  C  C377  1  0.25861582  0.24216418  0.68237978  1
  C  C378  1  0.45507335  0.47111196  0.84927927  1
  H  H379  1  0.41651998  0.28779299  0.95011970  1
  C  C380  1  0.35238088  0.01889651  0.89379038  1
  C  C381  1  0.41925893  0.46579502  0.67667878  1
  O  O382  1  0.34213757  0.21038294  0.99016580  1
  C  C383  1  0.47882995  0.49489643  0.77482151  1
  H  H384  1  0.32649713  0.08834736  0.99178288  1
  Cu  Cu385  1  0.49836082  0.21601444  0.63277494  1
  O  O386  1  0.36934132  0.66577733  0.35512382  1
  C  C387  1  0.27877966  0.90575852  0.40026229  1
  C  C388  1  0.43845351  0.65636856  0.23005826  1
  O  O389  1  0.40904414  0.61839156  0.46660566  1
  C  C390  1  0.44061750  0.63602673  0.31995362  1
  Cu  Cu391  1  0.36626347  0.75177302  0.36785817  1
  C  C392  1  0.40235742  0.63878553  0.37925415  1
  H  H393  1  0.40734386  0.91713706  0.44036461  1
  C  C394  1  0.47960506  0.61238154  0.35807591  1
  H  H395  1  0.34313760  0.96225468  0.11544197  1
  H  H396  1  0.28388219  0.69433475  0.44678319  1
  O  O397  1  0.34779594  0.75512881  0.49189888  1
  C  C398  1  0.26649871  0.92162854  0.23798043  1
  H  H399  1  0.44357544  0.52579517  0.31249431  1
  H  H400  1  0.40989143  0.68041976  0.20682239  1
  C  C401  1  0.33468618  0.86703808  0.29189205  1
  H  H402  1  0.48088168  0.59525410  0.42948180  1
  O  O403  1  0.34963900  0.86639240  0.21912015  1
  H  H404  1  0.27092951  0.57562608  0.37383244  1
  O  O405  1  0.35962716  0.84379169  0.35469914  1
  C  C406  1  0.29249885  0.90096323  0.30909618  1
  H  H407  1  0.42023616  0.54353731  0.00562849  1
  H  H408  1  0.30428863  0.89638148  0.45137536  1
  H  H409  1  0.49702873  0.53396683  0.06502633  1
  C  C410  1  0.25940978  0.72504697  0.47819573  1
  C  C411  1  0.47576395  0.65208581  0.17492853  1
  H  H412  1  0.47520045  0.67384706  0.10858280  1
  H  H413  1  0.27779704  0.91606001  0.16461071  1
  C  C414  1  0.39309847  0.96613676  0.46339467  1
  C  C415  1  0.25794562  0.54493244  0.31938640  1
  H  H416  1  0.48698486  0.51379780  0.23823793  1
  H  H417  1  0.39126081  0.98413931  0.17693740  1
  H  H418  1  0.28449965  0.52674205  0.27605715  1
  H  H419  1  0.38321426  0.63615113  0.49764538  1
  H  H420  1  0.33144815  0.85944637  0.88825144  1
  O  O421  1  0.33194167  0.84068426  0.57395111  1
  O  O422  1  0.34338805  0.50312973  0.97206356  1
  C  C423  1  0.26292769  0.69148262  0.69343650  1
  O  O424  1  0.38279692  0.87767752  0.76528688  1
  C  C425  1  0.31960215  0.73229048  0.79666410  1
  O  O426  1  0.31020422  0.79316466  0.77100189  1
  O  O427  1  0.35033569  0.72265368  0.84379159  1
  C  C428  1  0.32728284  0.90690319  0.90928562  1
  C  C429  1  0.29380663  0.67651362  0.75957961  1
  C  C430  1  0.35248406  0.95464287  0.86719903  1
  H  H431  1  0.25605587  0.74321074  0.67721880  1
  C  C432  1  0.30793086  0.61541896  0.78383278  1
  C  C433  1  0.28367854  0.56470908  0.74983522  1
  C  C434  1  0.38045689  0.93528441  0.79198485  1
  C  C435  1  0.29846883  0.92947139  0.97105002  1
  Cu  Cu436  1  0.34136943  0.83885171  0.69443264  1
  H  H437  1  0.48039233  0.50663972  0.62445769  1
  H  H438  1  0.25846380  0.87236648  0.58668306  1
  H  H439  1  0.33795693  0.61322444  0.82826752  1
  Cu  Cu440  1  0.41513416  0.99938655  0.63685125  1
  Cu  Cu441  1  0.28440552  0.51282111  0.93217395  1
  O  O442  1  0.40360999  0.97900049  0.75829832  1
  O  O443  1  0.41894897  0.97694090  0.52383879  1
  H  H444  1  0.28903664  0.51513617  0.77224261  1
  C  C445  1  0.32046657  0.79112178  0.53091879  1
  O  O446  1  0.25726805  0.94667580  0.70809940  1
  C  C447  1  0.27430469  0.77898350  0.52452380  1
  O  O448  1  0.25484694  0.58802302  0.94536548  1
  C  C449  1  0.29630001  0.99467754  0.99794823  1
  H  H450  1  0.27709928  0.89247161  0.99874693  1
  C  C451  1  0.57120289  0.44393923  0.09825717  1
  C  C452  1  0.56668029  0.49728585  0.48293804  1
  C  C453  1  0.54331643  0.24195939  0.23950326  1
  O  O454  1  0.71504109  0.10951551  0.35980922  1
  C  C455  1  0.57516589  0.26531508  0.17868067  1
  C  C456  1  0.53409091  0.17682093  0.23759855  1
  H  H457  1  0.58064320  0.31727850  0.17593564  1
  H  H458  1  0.68260907  0.20108431  0.20549991  1
  C  C459  1  0.68295480  0.22695434  0.14418411  1
  C  C460  1  0.59856406  0.22235958  0.12330862  1
  H  H461  1  0.74660832  0.06153584  0.44156237  1
  C  C462  1  0.73727675  0.47659845  0.02422440  1
  C  C463  1  0.55203994  0.13420563  0.17468637  1
  H  H464  1  0.53725527  0.49385419  0.43847667  1
  H  H465  1  0.52162708  0.27468913  0.27793313  1
  C  C466  1  0.65753481  0.48807724  0.02041655  1
  H  H467  1  0.68958187  0.40792610  0.20722324  1
  C  C468  1  0.53205137  0.40848859  0.23564435  1
  H  H469  1  0.64223629  0.41686939  0.26761515  1
  H  H470  1  0.57013890  0.46457891  0.02588558  1
  C  C471  1  0.57260180  0.40203805  0.27515972  1
  C  C472  1  0.57494164  0.37208780  0.36934641  1
  C  C473  1  0.61284766  0.33990268  0.39498607  1
  C  C474  1  0.64488428  0.24122634  0.09111925  1
  C  C475  1  0.61012770  0.43908131  0.14350119  1
  C  C476  1  0.61207242  0.41567267  0.23349628  1
  C  C477  1  0.58458963  0.15536349  0.11664637  1
  C  C478  1  0.73179859  0.44524286  0.10557177  1
  H  H479  1  0.54275221  0.08451063  0.17605413  1
  C  C480  1  0.53923616  0.37239656  0.42609648  1
  C  C481  1  0.72387453  0.24474274  0.10513740  1
  C  C482  1  0.65347770  0.44939947  0.09681828  1
  C  C483  1  0.53234335  0.43357045  0.14863291  1
  C  C484  1  0.69103699  0.43040811  0.14193170  1
  H  H485  1  0.64105322  0.33456395  0.35102810  1
  H  H486  1  0.73136599  0.15750576  0.25326652  1
  H  H487  1  0.50663713  0.23401921  0.07986464  1
  H  H488  1  0.59746036  0.12325681  0.06306439  1
  C  C489  1  0.61556164  0.31312423  0.48086605  1
  H  H490  1  0.58170366  0.44832561  0.49357448  1
  C  C491  1  0.72415377  0.27008833  0.01771200  1
  H  H492  1  0.74533723  0.34378717  0.22873152  1
  H  H493  1  0.50929314  0.39919123  0.40870003  1
  C  C494  1  0.64649200  0.27709600  0.01281519  1
  H  H495  1  0.55957919  0.39974884  0.81873835  1
  O  O496  1  0.67527831  0.09660358  0.84896308  1
  O  O497  1  0.60220545  0.29405249  0.96513083  1
  C  C498  1  0.68891565  0.14014495  0.80441969  1
  H  H499  1  0.63844209  0.39103175  0.81872203  1
  O  O500  1  0.66703361  0.16438144  0.73666335  1
  C  C501  1  0.69912932  0.33239930  0.71749657  1
  C  C502  1  0.67973751  0.30932621  0.79560600  1
  H  H503  1  0.74215698  0.09591246  0.92354541  1
  O  O504  1  0.51657260  0.15837951  0.71933921  1
  C  C505  1  0.57934885  0.28083394  0.62146047  1
  O  O506  1  0.54314935  0.27366099  0.65921136  1
  O  O507  1  0.61423200  0.25586207  0.64857215  1
  H  H508  1  0.61152930  0.44371781  0.89205058  1
  H  H509  1  0.70660517  0.46347516  0.80235994  1
  C  C510  1  0.67083133  0.47751580  0.56714265  1
  C  C511  1  0.53044165  0.16861330  0.79766632  1
  C  C512  1  0.69847487  0.32172105  0.88220520  1
  H  H513  1  0.53121908  0.39079615  0.92040042  1
  Cu  Cu514  1  0.61227124  0.19060539  0.72793763  1
  C  C515  1  0.62687975  0.39591239  0.89050497  1
  C  C516  1  0.73643555  0.36184613  0.88714664  1
  H  H517  1  0.68613986  0.32362332  0.64797688  1
  O  O518  1  0.57123485  0.16674298  0.80828053  1
  H  H519  1  0.68157880  0.43511326  0.52729150  1
  H  H520  1  0.73231265  0.23607906  0.70597550  1
  C  C521  1  0.55590211  0.36552974  0.87176698  1
  O  O522  1  0.54451299  0.48802642  0.64490195  1
  C  C523  1  0.53990552  0.34088754  0.50752769  1
  H  H524  1  0.64813917  0.28382548  0.79385388  1
  H  H525  1  0.65550490  0.39738876  0.93288984  1
  C  C526  1  0.68617241  0.28939627  0.96917199  1
  H  H527  1  0.51097953  0.34645823  0.55105851  1
  C  C528  1  0.69930072  0.49906981  0.98253531  1
  C  C529  1  0.59659794  0.34127536  0.91693527  1
  C  C530  1  0.74012879  0.36429751  0.72505744  1
  H  H531  1  0.62614677  0.42486051  0.65595253  1
  C  C532  1  0.73406854  0.16407233  0.81592716  1
  C  C533  1  0.50208349  0.18102247  0.87439222  1
  H  H534  1  0.53487677  0.32689991  0.84347300  1
  C  C535  1  0.51950505  0.20352768  0.95681104  1
  H  H536  1  0.55476459  0.20740400  0.96916597  1
  C  C537  1  0.57819383  0.31078428  0.53361641  1
  C  C538  1  0.64012773  0.47181107  0.63438756  1
  H  H539  1  0.64499919  0.29278885  0.51128483  1
  C  C540  1  0.62480006  0.62140984  0.11810428  1
  C  C541  1  0.59131278  0.62472995  0.17843677  1
  C  C542  1  0.65729506  0.56271426  0.30143287  1
  O  O543  1  0.59533800  0.64333974  0.27247702  1
  H  H544  1  0.69276000  0.57767874  0.29826376  1
  H  H545  1  0.71660396  0.76223129  0.28351629  1
  H  H546  1  0.64748070  0.54231515  0.23765800  1
  C  C547  1  0.71866682  0.54736862  0.46064147  1
  C  C548  1  0.54373639  0.60346488  0.05007287  1
  C  C549  1  0.70561466  0.60106566  0.15237901  1
  C  C550  1  0.55113968  0.61509723  0.14279013  1
  C  C551  1  0.63460171  0.63843573  0.40170061  1
  H  H552  1  0.54505058  0.58859484  0.33176909  1
  C  C553  1  0.51288538  0.62004158  0.20814068  1
  H  H554  1  0.70131943  0.55274439  0.12334998  1
  C  C555  1  0.51536421  0.60588501  0.30209485  1
  C  C556  1  0.62507538  0.61701940  0.32909876  1
  H  H557  1  0.64534240  0.73101854  0.20559366  1
  C  C558  1  0.67014000  0.64256254  0.15226825  1
  C  C559  1  0.67380992  0.69970737  0.20177134  1
  C  C560  1  0.71173473  0.71572779  0.24602549  1
  H  H561  1  0.61495925  0.67891587  0.42653471  1
  H  H562  1  0.51161611  0.60817643  0.02271631  1
  C  C563  1  0.74747807  0.67333466  0.24524444  1
  H  H564  1  0.66143618  0.61866123  0.44642843  1
  O  O565  1  0.73264287  0.60831773  0.45388933  1
  C  C566  1  0.62047616  0.61410332  0.02658620  1
  O  O567  1  0.73160408  0.50801330  0.40822136  1
  H  H568  1  0.65498261  0.52326447  0.35452007  1
  C  C569  1  0.74371319  0.61572585  0.20095406  1
  H  H570  1  0.59192674  0.52853205  0.44570518  1
  C  C571  1  0.73377018  0.55497414  0.74737805  1
  C  C572  1  0.71416626  0.60910296  0.91428476  1
  C  C573  1  0.68773614  0.53685969  0.53711858  1
  C  C574  1  0.70829699  0.54333342  0.89986439  1
  C  C575  1  0.60722253  0.56322171  0.83652970  1
  H  H576  1  0.56086631  0.61871579  0.63184524  1
  C  C577  1  0.57363691  0.56635063  0.90198735  1
  C  C578  1  0.67732727  0.59283445  0.58345071  1
  H  H579  1  0.69410054  0.63872747  0.56720806  1
  H  H580  1  0.64131386  0.63450178  0.69482804  1
  C  C581  1  0.64901341  0.59133090  0.65634988  1
  H  H582  1  0.63986643  0.57554665  0.84806443  1
  C  C583  1  0.59636100  0.53838320  0.75233258  1
  C  C584  1  0.53274934  0.54283483  0.87831851  1
  H  H585  1  0.50876989  0.54822375  0.93209198  1
  C  C586  1  0.55611879  0.51234579  0.72893779  1
  C  C587  1  0.56440470  0.59013710  0.56934808  1
  C  C588  1  0.52346002  0.51727475  0.79371591  1
  C  C589  1  0.63102016  0.53149087  0.67960356  1
  H  H590  1  0.63025016  0.50822000  0.98418585  1
  H  H591  1  0.74206616  0.53885313  0.67756984  1
  C  C592  1  0.71466168  0.51675683  0.81210615  1
  C  C593  1  0.55597596  0.52836603  0.57294974  1
  H  H594  1  0.57506442  0.61135128  0.50442771  1
  C  C595  1  0.73066538  0.64809800  0.84774539  1
  C  C596  1  0.74107692  0.62054703  0.76339142  1
  H  H597  1  0.73392089  0.69991515  0.85379696  1
  H  H598  1  0.71088434  0.63067734  0.98597071  1
  C  C599  1  0.57994181  0.59571461  0.99419613  1
  H  H600  1  0.64750040  0.62083269  0.98009129  1
  H  H601  1  0.87739197  0.45926255  0.03370808  1
  C  C602  1  0.79994856  0.16338697  0.28323594  1
  C  C603  1  0.79461696  0.11759908  0.35826888  1
  O  O604  1  0.96223727  0.44468238  0.04733109  1
  H  H605  1  0.86544105  0.10045440  0.39022496  1
  O  O606  1  0.87739125  0.17154798  0.31411897  1
  C  C607  1  0.84044721  0.18659742  0.26237263  1
  H  H608  1  0.90513217  0.05697910  0.49137865  1
  C  C609  1  0.83072818  0.48842166  0.23934669  1
  H  H610  1  0.81033158  0.27021778  0.07674615  1
  C  C611  1  0.76390181  0.21946629  0.15608079  1
  C  C612  1  0.80842484  0.38604551  0.03483824  1
  C  C613  1  0.76904131  0.42949425  0.17081135  1
  C  C614  1  0.86210878  0.44830626  0.38083972  1
  H  H615  1  0.92626751  0.12869523  0.12817249  1
  C  C616  1  0.98866144  0.06621285  0.05336578  1
  H  H617  1  0.96554343  0.07564718  0.45267289  1
  C  C618  1  0.90967588  0.13696274  0.26652676  1
  C  C619  1  0.80251669  0.38771165  0.30335770  1
  C  C620  1  0.98729803  0.45577926  0.42032392  1
  H  H621  1  0.80803207  0.34674906  0.35479592  1
  H  H622  1  0.96520592  0.14177911  0.34494290  1
  H  H623  1  0.82533521  0.38201565  0.10335170  1
  C  C624  1  0.82967153  0.08559779  0.40029785  1
  C  C625  1  0.90235857  0.28948215  0.23543948  1
  H  H626  1  0.89804439  0.05805791  0.17792229  1
  C  C627  1  0.88848473  0.28186236  0.06783901  1
  C  C628  1  0.95817993  0.42437233  0.12653322  1
  H  H629  1  0.89388911  0.27669652  0.30687353  1
  C  C630  1  0.92657311  0.34412712  0.22755337  1
  O  O631  1  0.97417023  0.45358570  0.19384246  1
  C  C632  1  0.83093177  0.43969740  0.30653392  1
  C  C633  1  0.95000599  0.12273240  0.28441674  1
  C  C634  1  0.88099878  0.26301320  0.15856337  1
  O  O635  1  0.86627430  0.40878273  0.44646062  1
  H  H636  1  0.95730805  0.24380756  0.06099519  1
  C  C637  1  0.97019204  0.19438243  0.05835745  1
  H  H638  1  0.86767833  0.13066682  0.14938435  1
  C  C639  1  0.89974643  0.11133162  0.17193819  1
  C  C640  1  0.93388660  0.36326988  0.13672644  1
  C  C641  1  0.80603957  0.23987125  0.13346717  1
  C  C642  1  0.91371367  0.33667985  0.06023957  1
  C  C643  1  0.84210545  0.22372165  0.18410690  1
  H  H644  1  0.94073843  0.36799159  0.28559730  1
  C  C645  1  0.82029273  0.03463877  0.45678715  1
  H  H646  1  0.77413578  0.37387531  0.04799207  1
  C  C647  1  0.77046148  0.38234540  0.23593351  1
  H  H648  1  0.87256561  0.26206497  0.01067389  1
  H  H649  1  0.78969002  0.00779888  0.46244501  1
  O  O650  1  0.96526687  0.40514955  0.42896436  1
  H  H651  1  0.96878587  0.09205220  0.23883808  1
  C  C652  1  0.99723107  0.16931541  0.12374916  1
  O  O653  1  0.88900402  0.49376422  0.37666429  1
  Cu  Cu654  1  0.93228221  0.48128854  0.28939219  1
  C  C655  1  0.76213753  0.17858354  0.23030303  1
  C  C656  1  0.99387534  0.07225548  0.49176625  1
  C  C657  1  0.80233320  0.47890904  0.16938638  1
  C  C658  1  0.75059445  0.09949256  0.38778971  1
  H  H659  1  0.99672602  0.01551266  0.05393067  1
  H  H660  1  0.99879750  0.28035659  0.32272518  1
  H  H661  1  0.81931223  0.13200084  0.94216650  1
  C  C662  1  0.85166795  0.10085138  0.72097220  1
  H  H663  1  0.87828739  0.13933579  0.71711998  1
  H  H664  1  0.91796127  0.17740381  0.60632337  1
  O  O665  1  0.88534021  0.10568608  0.88775423  1
  H  H666  1  0.86859348  0.42006896  0.93127639  1
  C  C667  1  0.92708140  0.30085461  0.84868752  1
  H  H668  1  0.80712900  0.27491022  0.73729113  1
  H  H669  1  0.86362041  0.06313598  0.67099017  1
  Cu  Cu670  1  0.83625076  0.40966567  0.55270611  1
  H  H671  1  0.98985020  0.19341068  0.78584351  1
  C  C672  1  0.85281935  0.07916442  0.81935891  1
  H  H673  1  0.80218024  0.02199412  0.76951513  1
  C  C674  1  0.82023792  0.20305617  0.84020637  1
  C  C675  1  0.86772382  0.22217387  0.84934654  1
  C  C676  1  0.89203060  0.16883542  0.87986333  1
  C  C677  1  0.94761592  0.46649370  0.74159895  1
  O  O678  1  0.88438821  0.36098119  0.59826052  1
  H  H679  1  0.82016877  0.12351951  0.70232016  1
  H  H680  1  0.96619732  0.37328072  0.65942097  1
  C  C681  1  0.94776929  0.25800492  0.90601262  1
  H  H682  1  0.79161164  0.40047345  0.80936738  1
  C  C683  1  0.99737904  0.02579555  0.55940857  1
  O  O684  1  0.86412222  0.25731350  0.59121537  1
  C  C685  1  0.98494232  0.18602112  0.62762364  1
  C  C686  1  0.80064680  0.15503974  0.89178347  1
  C  C687  1  0.79343875  0.23296088  0.77492461  1
  O  O688  1  0.80394864  0.40736662  0.65237730  1
  H  H689  1  0.97303552  0.08235404  0.79674948  1
  H  H690  1  0.88933957  0.40748877  0.74266097  1
  C  C691  1  0.92385607  0.41119222  0.76661913  1
  C  C692  1  0.94352070  0.21151694  0.61680462  1
  C  C693  1  0.93616879  0.27867944  0.62467337  1
  C  C694  1  0.96948858  0.32199491  0.64454651  1
  C  C695  1  0.89095798  0.29543464  0.60594311  1
  H  H696  1  0.86548639  0.31657392  0.78610656  1
  C  C697  1  0.88419995  0.28378901  0.82564754  1
  C  C698  1  0.94513660  0.36601705  0.82148824  1
  H  H699  1  0.94061107  0.05774847  0.94726199  1
  C  C700  1  0.82216397  0.03622958  0.82780811  1
  H  H701  1  0.97704737  0.27376659  0.94154518  1
  H  H702  1  0.99185373  0.13302894  0.61925748  1
  C  C703  1  0.98786892  0.37845124  0.84894848  1
  C  C704  1  0.76694757  0.38119726  0.64436565  1
  C  C705  1  0.93162011  0.19673904  0.91611953  1
  C  C706  1  0.99041282  0.48176791  0.76534003  1
  C  C707  1  0.75811562  0.37645969  0.80758418  1
  O  O708  1  0.78274808  0.49452956  0.98256674  1
  C  C709  1  0.81045621  0.45172556  0.99386578  1
  H  H710  1  0.81583144  0.02207221  0.89740593  1
  C  C711  1  0.85802764  0.46150437  0.97394393  1
  H  H712  1  0.81892262  0.34645032  0.98636778  1
  C  C713  1  0.95446085  0.15641271  0.98449104  1
  H  H714  1  0.75411440  0.26555384  0.98481564  1
  H  H715  1  0.75105970  0.37258458  0.95373419  1
  C  C716  1  0.75680202  0.13607133  0.88729006  1
  C  C717  1  0.75211477  0.21163523  0.75756769  1
  H  H718  1  0.91872781  0.35389348  0.99191079  1
  C  C719  1  0.95928341  0.08972390  0.99168660  1
  O  O720  1  0.75256900  0.36477027  0.57215484  1
  C  C721  1  0.89155683  0.01615495  0.52270167  1
  Cu  Cu722  1  0.91882485  0.39206796  0.51043222  1
  C  C723  1  0.97892233  0.62917144  0.32551027  1
  O  O724  1  0.97599024  0.50039663  0.36778557  1
  H  H725  1  0.77159515  0.58221118  0.20201945  1
  C  C726  1  0.92314994  0.81601259  0.33099488  1
  H  H727  1  0.93282622  0.93936366  0.37629007  1
  O  O728  1  0.95476122  0.59181610  0.09447102  1
  H  H729  1  0.95006080  0.60506964  0.35603727  1
  Cu  Cu730  1  0.98801258  0.53016247  0.03963712  1
  O  O731  1  0.92293650  0.76033970  0.29718788  1
  C  C732  1  0.95141780  0.92209298  0.12324724  1
  H  H733  1  0.92734771  0.91563754  0.18379935  1
  C  C734  1  0.96341554  0.91459722  0.36085753  1
  H  H735  1  0.94233583  0.57696493  0.46725442  1
  C  C736  1  0.99671358  0.91936663  0.12890320  1
  C  C737  1  0.95015395  0.59371229  0.17993270  1
  C  C738  1  0.92964566  0.93338983  0.03907204  1
  O  O739  1  0.89246866  0.66640202  0.42617678  1
  C  C740  1  0.98384582  0.62746610  0.22941579  1
  Cu  Cu741  1  0.83472098  0.79881108  0.34855098  1
  C  C742  1  0.88080956  0.93085600  0.05009087  1
  C  C743  1  0.96395836  0.85017431  0.33820315  1
  Cu  Cu744  1  0.87729384  0.70447095  0.31394474  1
  O  O745  1  0.88664465  0.84346090  0.34273153  1
  H  H746  1  0.80102165  0.51719328  0.11708063  1
  O  O747  1  0.82013757  0.66281851  0.29613212  1
  O  O748  1  0.92228753  0.56162171  0.21977415  1
  O  O749  1  0.86343095  0.91283766  0.11674079  1
  C  C750  1  0.78677669  0.69501264  0.29626287  1
  O  O751  1  0.78486474  0.74898000  0.33673477  1
  H  H752  1  0.85515835  0.52604068  0.24034178  1
  H  H753  1  0.85091249  0.63880492  0.01014495  1
  C  C754  1  0.87138149  0.65370603  0.49868074  1
  Cu  Cu755  1  0.78401650  0.64262450  0.48780840  1
  C  C756  1  0.89257931  0.64620004  0.91813910  1
  C  C757  1  0.88760944  0.60161680  0.55513184  1
  H  H758  1  0.82367647  0.85718746  0.76577580  1
  C  C759  1  0.91789133  0.97466641  0.57306540  1
  H  H760  1  0.97701824  0.50259266  0.57726424  1
  C  C761  1  0.95125303  0.93584677  0.95693522  1
  H  H762  1  0.83534546  0.61051468  0.64984155  1
  C  C763  1  0.98643955  0.82459232  0.71672689  1
  H  H764  1  0.85499216  0.85427236  0.87426141  1
  H  H765  1  0.94359482  0.84499397  0.88480851  1
  C  C766  1  0.86424138  0.58463062  0.63413869  1
  H  H767  1  0.87587058  0.97808800  0.94574599  1
  H  H768  1  0.86390927  0.53433579  0.75612973  1
  C  C769  1  0.94432240  0.52751363  0.59418626  1
  C  C770  1  0.92609945  0.56871680  0.52958850  1
  C  C771  1  0.96665764  0.88538411  0.70297545  1
  C  C772  1  0.92326640  0.68726313  0.86928618  1
  C  C773  1  0.89438715  0.87047686  0.75554516  1
  H  H774  1  0.94446501  0.61946992  0.76238895  1
  C  C775  1  0.92359123  0.51131288  0.67565562  1
  H  H776  1  0.91645765  0.80655250  0.65602072  1
  C  C777  1  0.96730793  0.77771414  0.78333585  1
  O  O778  1  0.84447118  0.89349515  0.58730511  1
  C  C779  1  0.94527480  0.66697902  0.79049229  1
  H  H780  1  0.84984268  0.93092536  0.82079937  1
  O  O781  1  0.92734435  0.90702444  0.75754428  1
  C  C782  1  0.96351557  0.97992428  0.58373686  1
  C  C783  1  0.96757543  0.71553615  0.74504135  1
  H  H784  1  0.85871761  0.81010007  0.66174827  1
  H  H785  1  0.97905074  0.71220658  0.67253771  1
  C  C786  1  0.92237852  0.74879022  0.90848808  1
  C  C787  1  0.94365725  0.79375290  0.86081793  1
  C  C788  1  0.98303815  0.91901680  0.63038635  1
  C  C789  1  0.88921088  0.81160681  0.69724769  1
  C  C790  1  0.85206741  0.87814788  0.80418403  1
  O  O791  1  0.83742888  0.68224900  0.51546055  1
  H  H792  1  0.88657012  0.76566366  0.73884859  1
  C  C793  1  0.88350018  0.54256609  0.69477656  1
  H  H794  1  0.93553312  0.93711815  0.88977143  1
  O  O795  1  0.88690096  0.59066511  0.90131087  1
  O  O796  1  0.76923397  0.62948318  0.61342209  1
  O  O797  1  0.85409671  0.95178512  0.97843669  1
  H  H798  1  0.86242653  0.51156622  0.94108131  1
  H  H799  1  0.90237321  0.93542171  0.61117714  1
  O  O800  1  0.75261190  0.71841836  0.68622361  1
  C  C801  1  0.75679552  0.66110730  0.68779434  1
  C  C802  1  0.99710126  0.92535547  0.96088114  1
  H  H803  1  0.90532484  0.75837919  0.97123553  1
  H  H804  1  0.99166461  0.70411054  0.97615880  1
  H  H805  1  0.78202007  0.87643426  0.53761201  1
  C  C806  1  0.82792750  0.93455427  0.54046208  1
  O  O807  1  0.78584927  0.91983198  0.50944129  1
  C  C808  1  0.84847153  0.99607635  0.50927030  1
  O  O809  1  0.86695790  0.67257494  0.99057858  1
