# generated using pymatgen
data_CuH15C22O5
_symmetry_space_group_name_H-M   'P 1'
_cell_length_a   34.87448439
_cell_length_b   26.29621952
_cell_length_c   10.42282730
_cell_angle_alpha   90.00000000
_cell_angle_beta   90.00000000
_cell_angle_gamma   90.00000000
_symmetry_Int_Tables_number   1
_chemical_formula_structural   CuH15C22O5
_chemical_formula_sum   'Cu18 H270 C396 O90'
_cell_volume   9558.43197714
_cell_formula_units_Z   18
loop_
 _symmetry_equiv_pos_site_id
 _symmetry_equiv_pos_as_xyz
  1  'x, y, z'
loop_
 _atom_site_type_symbol
 _atom_site_label
 _atom_site_symmetry_multiplicity
 _atom_site_fract_x
 _atom_site_fract_y
 _atom_site_fract_z
 _atom_site_occupancy
  C  C0  1  0.04657120  0.16940458  0.21056160  1
  O  O1  1  0.13359849  0.19690346  0.30142966  1
  C  C2  1  0.16593079  0.18941353  0.26364951  1
  Cu  Cu3  1  0.17226234  0.08142362  0.21692789  1
  C  C4  1  0.07373689  0.13185787  0.21821765  1
  H  H5  1  0.09357981  0.12838547  0.30048285  1
  H  H6  1  0.04547045  0.20178147  0.27936056  1
  O  O7  1  0.18411938  0.14694775  0.28565435  1
  O  O8  1  0.12620632  0.05238082  0.23458211  1
  C  C9  1  0.07279371  0.09219418  0.12645725  1
  C  C10  1  0.10129644  0.05115472  0.14519950  1
  O  O11  1  0.21125405  0.07302054  0.10646862  1
  C  C12  1  0.22365533  0.22016407  0.14556682  1
  C  C13  1  0.01767414  0.16722183  0.11519465  1
  C  C14  1  0.18748217  0.23285969  0.19845143  1
  H  H15  1  0.23716389  0.18096670  0.15999389  1
  O  O16  1  0.09671571  0.01268411  0.07249771  1
  C  C17  1  0.04946208  0.09498186  0.01737581  1
  C  C18  1  0.02198742  0.13389248  0.00814565  1
  C  C19  1  0.24283656  0.04762979  0.13047564  1
  H  H20  1  0.17915839  0.14628429  0.04148194  1
  C  C21  1  0.00506903  0.35186798  0.07014017  1
  H  H22  1  0.09785781  0.33863842  0.25148123  1
  C  C23  1  0.16539498  0.27750312  0.18236476  1
  O  O24  1  0.05453845  0.49529401  0.02666473  1
  O  O25  1  0.03031954  0.25769881  0.43974284  1
  C  C26  1  0.00564051  0.25830031  0.11380197  1
  C  C27  1  0.21861725  0.30700872  0.05299185  1
  H  H28  1  0.03513714  0.26184885  0.09969593  1
  O  O29  1  0.20193461  0.48934906  0.45355352  1
  C  C30  1  0.13748370  0.38724394  0.34387504  1
  C  C31  1  0.05390336  0.41432589  0.12180853  1
  H  H32  1  0.02193511  0.40741518  0.40138397  1
  H  H33  1  0.15053937  0.35397805  0.39575109  1
  C  C34  1  0.23677200  0.49104123  0.14283291  1
  H  H35  1  0.23738712  0.36730691  0.23146715  1
  C  C36  1  0.23847799  0.25777627  0.06527825  1
  C  C37  1  0.13704528  0.47749518  0.29856696  1
  C  C38  1  0.04413977  0.39571302  0.46486909  1
  C  C39  1  0.10570514  0.47215555  0.21979400  1
  C  C40  1  0.02811812  0.30589777  0.43176971  1
  C  C41  1  0.22172884  0.44197570  0.16440470  1
  C  C42  1  0.15393270  0.43630349  0.36166504  1
  H  H43  1  0.05163347  0.33452189  0.19627431  1
  C  C44  1  0.24776092  0.40800854  0.21930623  1
  C  C45  1  0.03762786  0.45030180  0.03418884  1
  C  C46  1  0.10713925  0.38029465  0.26412935  1
  H  H47  1  0.19174931  0.42961319  0.13738059  1
  C  C48  1  0.03957057  0.36523464  0.13245504  1
  H  H49  1  0.16749407  0.35283545  0.10405561  1
  C  C50  1  0.18227812  0.31554550  0.11259776  1
  H  H51  1  0.13697863  0.28067077  0.21896377  1
  C  C52  1  0.18919042  0.44236495  0.44446777  1
  C  C53  1  0.08926594  0.42318891  0.19926340  1
  C  C54  1  0.05324986  0.34304897  0.48714378  1
  O  O55  1  0.20371400  0.40604816  0.49015881  1
  H  H56  1  0.06663798  0.47163370  0.47408344  1
  C  C57  1  0.19328670  0.18297305  0.86525410  1
  H  H58  1  0.18932167  0.21829005  0.91977380  1
  H  H59  1  0.17962369  0.18991435  0.77250451  1
  C  C60  1  0.13747449  0.22551009  0.61361624  1
  O  O61  1  0.05661218  0.20154559  0.64419070  1
  C  C62  1  0.07278969  0.22685089  0.73067936  1
  H  H63  1  0.12682660  0.19982881  0.53474509  1
  C  C64  1  0.17663519  0.23460705  0.60644908  1
  H  H65  1  0.05458229  0.06253945  0.94663055  1
  C  C66  1  0.17221798  0.14163458  0.94156777  1
  O  O67  1  0.23819295  0.18475521  0.84747638  1
  H  H68  1  0.18319556  0.10335271  0.92263518  1
  H  H69  1  0.00273096  0.13818994  0.92570402  1
  C  C70  1  0.11351415  0.23883433  0.71493479  1
  H  H71  1  0.19587714  0.22022995  0.53012669  1
  Cu  Cu72  1  0.00482257  0.21702379  0.56286911  1
  C  C73  1  0.24174644  0.00578064  0.90048946  1
  H  H74  1  0.21642262  0.02829135  0.87401792  1
  H  H75  1  0.13994431  0.14481978  0.93124394  1
  O  O76  1  0.05406382  0.24277639  0.82852283  1
  H  H77  1  0.03228852  0.43556323  0.73259310  1
  Cu  Cu78  1  0.00815758  0.27603904  0.81847719  1
  C  C79  1  0.16766453  0.28125699  0.80989127  1
  H  H80  1  0.09037814  0.28696135  0.57422808  1
  C  C81  1  0.23628927  0.25738655  0.70268149  1
  C  C82  1  0.18235268  0.45294788  0.79452976  1
  C  C83  1  0.10814081  0.36428548  0.61379723  1
  H  H84  1  0.11299811  0.27542212  0.90427916  1
  H  H85  1  0.15833038  0.38677117  0.72122288  1
  C  C86  1  0.19204663  0.26379918  0.70812386  1
  C  C87  1  0.00448540  0.43192537  0.97206309  1
  H  H88  1  0.23835807  0.32288930  0.58468600  1
  C  C89  1  0.06954726  0.43143654  0.50774576  1
  C  C90  1  0.15406930  0.42946320  0.72105726  1
  C  C91  1  0.13010721  0.26760853  0.81612248  1
  C  C92  1  0.20392822  0.37868066  0.92475361  1
  H  H93  1  0.13204628  0.34858953  0.67324537  1
  C  C94  1  0.23374306  0.34781930  0.96999011  1
  C  C95  1  0.21555562  0.42209809  0.85297812  1
  C  C96  1  0.12450201  0.45565382  0.65831923  1
  C  C97  1  0.08556725  0.32775532  0.55694789  1
  C  C98  1  0.09965531  0.41717487  0.59567049  1
  H  H99  1  0.17871652  0.30280180  0.89054701  1
  H  H100  1  0.17321435  0.37248317  0.94752406  1
  H  H101  1  0.00718919  0.48085070  0.53553336  1
  C  C102  1  0.00790144  0.46055311  0.74058350  1
  C  C103  1  0.08038236  0.59345389  0.31123110  1
  C  C104  1  0.08515151  0.68013095  0.23309210  1
  C  C105  1  0.10359837  0.63692659  0.28859242  1
  C  C106  1  0.14298323  0.64325378  0.33048099  1
  C  C107  1  0.04751567  0.68084812  0.19052163  1
  C  C108  1  0.04443563  0.59240605  0.25993242  1
  O  O109  1  0.16029664  0.60580100  0.38036889  1
  O  O110  1  0.16054738  0.68547468  0.31506578  1
  H  H111  1  0.09022876  0.56013702  0.36748921  1
  C  C112  1  0.02613860  0.63433674  0.19240985  1
  H  H113  1  0.02731512  0.55662292  0.27285978  1
  Cu  Cu114  1  0.21217665  0.58177868  0.38283320  1
  H  H115  1  0.03733276  0.71787416  0.15117265  1
  Cu  Cu116  1  0.19784840  0.71453122  0.18794013  1
  H  H117  1  0.09888586  0.72091688  0.22382554  1
  H  H118  1  0.13714361  0.65375020  0.08118668  1
  Cu  Cu119  1  0.23532510  0.62894119  0.17282672  1
  C  C120  1  0.20887405  0.52864377  0.08995196  1
  O  O121  1  0.15594162  0.73827984  0.07709367  1
  O  O122  1  0.22021995  0.57509870  0.06000458  1
  O  O123  1  0.17589815  0.51814133  0.07629720  1
  O  O124  1  0.23848469  0.74751396  0.10324882  1
  H  H125  1  0.05700069  0.60920773  0.03657843  1
  H  H126  1  0.15205921  0.51454026  0.30029365  1
  H  H127  1  0.03077169  0.60135826  0.46400325  1
  H  H128  1  0.09198248  0.50585142  0.16994196  1
  Cu  Cu129  1  0.06288665  0.96576557  0.14218957  1
  H  H130  1  0.18972558  0.89572176  0.07747099  1
  O  O131  1  0.03109553  0.91550290  0.21090920  1
  H  H132  1  0.21916324  0.84304698  0.13609747  1
  H  H133  1  0.01686360  0.80245429  0.01598335  1
  H  H134  1  0.18239656  0.82879831  0.01306663  1
  C  C135  1  0.20445473  0.85919936  0.05272588  1
  C  C136  1  0.14486132  0.63204280  0.70249422  1
  C  C137  1  0.14465521  0.58933713  0.78551816  1
  C  C138  1  0.14796250  0.68104149  0.75722437  1
  C  C139  1  0.14865712  0.68525536  0.89207537  1
  C  C140  1  0.13743240  0.59719410  0.92306362  1
  H  H141  1  0.08443639  0.59846509  0.70266692  1
  H  H142  1  0.21540192  0.65925788  0.77283565  1
  O  O143  1  0.08687237  0.52741954  0.60074181  1
  C  C144  1  0.14600490  0.53473028  0.73886734  1
  H  H145  1  0.14931186  0.71505501  0.69825656  1
  H  H146  1  0.19688263  0.52699381  0.86224349  1
  C  C147  1  0.07793055  0.58414413  0.60323359  1
  H  H148  1  0.14583441  0.62786177  0.59894607  1
  Cu  Cu149  1  0.21993362  0.52533236  0.58777938  1
  C  C150  1  0.17553313  0.50638465  0.79778015  1
  O  O151  1  0.24166316  0.56252082  0.72212421  1
  C  C152  1  0.03743314  0.60385291  0.57540564  1
  H  H153  1  0.03375668  0.52055648  0.84372627  1
  H  H154  1  0.09915465  0.60360843  0.53630380  1
  C  C155  1  0.15949207  0.73578370  0.95252880  1
  C  C156  1  0.11636665  0.50946483  0.66491603  1
  H  H157  1  0.07585812  0.59654996  0.87734563  1
  C  C158  1  0.04809906  0.59418597  0.93700407  1
  C  C159  1  0.03659260  0.53815552  0.94288579  1
  H  H160  1  0.00798478  0.53446822  0.99427802  1
  H  H161  1  0.02537104  0.61889018  0.89790591  1
  C  C162  1  0.14153553  0.64582790  0.97854260  1
  H  H163  1  0.01445160  0.57974535  0.62248400  1
  H  H164  1  0.13079134  0.56100316  0.97616951  1
  C  C165  1  0.24357921  0.67793232  0.74035049  1
  H  H166  1  0.03452578  0.64379550  0.60978947  1
  C  C167  1  0.24882131  0.73038890  0.73903262  1
  H  H168  1  0.22528503  0.75256829  0.77599058  1
  H  H169  1  0.22625353  0.90625153  0.88248719  1
  O  O170  1  0.16453339  0.77230285  0.88633261  1
  O  O171  1  0.24834990  0.83711201  0.86265930  1
  H  H172  1  0.24589998  0.96149729  0.71924837  1
  C  C173  1  0.23543373  0.87637604  0.95508195  1
  C  C174  1  0.42239757  0.05560178  0.32068098  1
  C  C175  1  0.45638058  0.06447854  0.25306133  1
  H  H176  1  0.34278323  0.04909943  0.37300122  1
  C  C177  1  0.47862570  0.10882200  0.27714985  1
  O  O178  1  0.46797310  0.02663972  0.17225711  1
  C  C179  1  0.46737190  0.14725741  0.37378716  1
  C  C180  1  0.40841593  0.09238725  0.41605186  1
  H  H181  1  0.48388141  0.18118006  0.40365943  1
  C  C182  1  0.43373146  0.13287825  0.42516917  1
  O  O183  1  0.25603371  0.04687784  0.23567745  1
  C  C184  1  0.35606716  0.01328017  0.34788383  1
  H  H185  1  0.38214744  0.09260937  0.47666458  1
  C  C186  1  0.39646065  0.01055021  0.31343434  1
  H  H187  1  0.49742876  0.07165668  0.05132832  1
  C  C188  1  0.25899338  0.01425651  0.02530956  1
  H  H189  1  0.31680854  0.47195248  0.03817303  1
  H  H190  1  0.42133269  0.48764519  0.15174688  1
  C  C191  1  0.29859946  0.47217562  0.23291733  1
  C  C192  1  0.44854262  0.49625938  0.19642493  1
  H  H193  1  0.37266088  0.30013187  0.15660630  1
  H  H194  1  0.40866995  0.36461682  0.22369167  1
  C  C195  1  0.43817964  0.31287213  0.42310051  1
  H  H196  1  0.42997905  0.27449295  0.39104994  1
  C  C197  1  0.29390176  0.35526685  0.42168684  1
  H  H198  1  0.46184848  0.46034963  0.22457810  1
  C  C199  1  0.36942189  0.35270781  0.39339664  1
  C  C200  1  0.31119618  0.38371682  0.32651893  1
  H  H201  1  0.42317455  0.42626431  0.25549392  1
  H  H202  1  0.26285265  0.35633035  0.43534533  1
  O  O203  1  0.36502527  0.41256671  0.20516719  1
  C  C204  1  0.42819316  0.40531981  0.04958849  1
  C  C205  1  0.41215562  0.35452470  0.41777436  1
  H  H206  1  0.32657144  0.48631901  0.26246969  1
  C  C207  1  0.28602532  0.42121385  0.25454667  1
  H  H208  1  0.39822137  0.43552203  0.44520312  1
  C  C209  1  0.41019659  0.40272300  0.18395385  1
  C  C210  1  0.35085601  0.38559592  0.29900338  1
  C  C211  1  0.42109653  0.40510433  0.45351777  1
  C  C212  1  0.47274202  0.32382521  0.48251407  1
  C  C213  1  0.35345898  0.32103571  0.48942325  1
  H  H214  1  0.45387181  0.38131629  0.04916208  1
  H  H215  1  0.36758971  0.25516921  0.03379228  1
  H  H216  1  0.43637186  0.44219931  0.01139476  1
  H  H217  1  0.40373469  0.30618619  0.01649066  1
  C  C218  1  0.37330374  0.29729005  0.05305652  1
  H  H219  1  0.34243496  0.36972514  0.02883328  1
  H  H220  1  0.26476344  0.25082179  0.01152482  1
  C  C221  1  0.39557512  0.16989798  0.82351638  1
  H  H222  1  0.39044346  0.12892819  0.82697087  1
  C  C223  1  0.32415168  0.18848104  0.81061313  1
  C  C224  1  0.36433905  0.20275863  0.81728571  1
  C  C225  1  0.43443259  0.18988760  0.82510732  1
  C  C226  1  0.31499380  0.13653412  0.85385939  1
  C  C227  1  0.46318564  0.16132289  0.77367228  1
  C  C228  1  0.29537105  0.22363617  0.75715662  1
  H  H229  1  0.28509250  0.12138042  0.83780483  1
  O  O230  1  0.47833097  0.08829215  0.66787809  1
  C  C231  1  0.48625709  0.13478738  0.72767994  1
  O  O232  1  0.33459154  0.10087413  0.88307537  1
  H  H233  1  0.43921905  0.23143283  0.84534309  1
  H  H234  1  0.37372246  0.24175789  0.82753126  1
  C  C235  1  0.25431083  0.21826690  0.77291906  1
  H  H236  1  0.44832154  0.00994391  0.58105184  1
  C  C237  1  0.25451613  0.29418317  0.63110465  1
  H  H238  1  0.34908808  0.25750100  0.67234429  1
  C  C239  1  0.31357250  0.32445488  0.51442516  1
  O  O240  1  0.29779695  0.31978104  0.99843342  1
  C  C241  1  0.37143059  0.48564240  0.94184442  1
  H  H242  1  0.33325763  0.37976907  0.68268217  1
  Cu  Cu243  1  0.49193648  0.43200324  0.79798461  1
  C  C244  1  0.32238528  0.42461046  0.85908858  1
  C  C245  1  0.33563203  0.46178093  0.95073345  1
  C  C246  1  0.34575665  0.40717172  0.75536993  1
  C  C247  1  0.48036946  0.37297503  0.52699403  1
  C  C248  1  0.45631949  0.41568943  0.51331549  1
  C  C249  1  0.31616169  0.25757794  0.68323594  1
  C  C250  1  0.34146594  0.33167324  0.98951550  1
  C  C251  1  0.39255393  0.46610029  0.84146212  1
  O  O252  1  0.45290412  0.47043943  0.74253610  1
  H  H253  1  0.40264976  0.41226641  0.68059696  1
  H  H254  1  0.26336112  0.46809363  0.77836622  1
  O  O255  1  0.47728827  0.31399496  0.91128148  1
  H  H256  1  0.34718806  0.33228345  0.88784675  1
  C  C257  1  0.29414251  0.29305294  0.61141131  1
  H  H258  1  0.37426243  0.29661210  0.55181142  1
  C  C259  1  0.27455185  0.35385557  0.95261850  1
  C  C260  1  0.38271252  0.42808010  0.75066991  1
  C  C261  1  0.28248508  0.39939100  0.88320927  1
  H  H262  1  0.46774580  0.45356296  0.53488843  1
  C  C263  1  0.25509649  0.43350072  0.83369762  1
  C  C264  1  0.43224373  0.48621646  0.83484872  1
  H  H265  1  0.40745200  0.38845324  0.97985451  1
  H  H266  1  0.49201164  0.29295858  0.50047102  1
  C  C267  1  0.34891407  0.63299641  0.33621959  1
  C  C268  1  0.32616404  0.59215224  0.38276443  1
  C  C269  1  0.38670527  0.63581497  0.37960141  1
  C  C270  1  0.28576632  0.59488623  0.35505715  1
  H  H271  1  0.33552531  0.66615937  0.28119782  1
  H  H272  1  0.40584991  0.66676093  0.35533059  1
  C  C273  1  0.45006431  0.68634363  0.17626522  1
  O  O274  1  0.27590743  0.63079155  0.28059667  1
  C  C275  1  0.39845772  0.59481378  0.46353695  1
  H  H276  1  0.42969915  0.56918305  0.28631689  1
  O  O277  1  0.26179312  0.56261588  0.40032128  1
  C  C278  1  0.46284277  0.64048899  0.11125683  1
  C  C279  1  0.44041661  0.52966341  0.31523194  1
  C  C280  1  0.46382396  0.69275269  0.30266837  1
  H  H281  1  0.28323921  0.54800983  0.14668487  1
  C  C282  1  0.42388638  0.72202661  0.12558661  1
  O  O283  1  0.47592580  0.54576295  0.39835049  1
  H  H284  1  0.41737570  0.51090884  0.37516678  1
  C  C285  1  0.47292253  0.58474544  0.47689192  1
  H  H286  1  0.40964763  0.71379823  0.03733164  1
  C  C287  1  0.33789585  0.55180485  0.46548834  1
  C  C288  1  0.26404139  0.71774848  0.05608796  1
  H  H289  1  0.46769314  0.51563132  0.12904754  1
  O  O290  1  0.25804919  0.67062957  0.05203234  1
  C  C291  1  0.27494758  0.50676164  0.16827691  1
  O  O292  1  0.49264508  0.62019124  0.15368496  1
  O  O293  1  0.44708299  0.62860727  0.00407899  1
  H  H294  1  0.48180819  0.66576933  0.35383635  1
  C  C295  1  0.45691755  0.73799524  0.36705016  1
  H  H296  1  0.47244449  0.73815920  0.45648459  1
  H  H297  1  0.38046640  0.51496601  0.00172996  1
  C  C298  1  0.30111625  0.73319161  0.00607370  1
  H  H299  1  0.30464987  0.96378192  0.36323300  1
  C  C300  1  0.41573056  0.76513835  0.19561187  1
  O  O301  1  0.49050762  0.87044790  0.38793654  1
  C  C302  1  0.38703402  0.82748386  0.45773496  1
  C  C303  1  0.35245675  0.92421466  0.29076981  1
  C  C304  1  0.42329630  0.82365707  0.39722228  1
  O  O305  1  0.34163485  0.83915777  0.24283871  1
  H  H306  1  0.30356141  0.99372694  0.16271566  1
  C  C307  1  0.41338788  0.96395270  0.27133783  1
  H  H308  1  0.29586697  0.81355782  0.05053618  1
  C  C309  1  0.29045861  0.98869893  0.06273500  1
  C  C310  1  0.45186593  0.86116927  0.41974656  1
  H  H311  1  0.36592969  0.79526543  0.43882223  1
  O  O312  1  0.29076238  0.88423868  0.28596693  1
  C  C313  1  0.43155900  0.77502161  0.32020467  1
  C  C314  1  0.39077899  0.92075930  0.25237573  1
  H  H315  1  0.39892154  0.95191473  0.04205991  1
  H  H316  1  0.40171108  0.88360452  0.22497110  1
  C  C317  1  0.33493248  0.96777320  0.33875406  1
  C  C318  1  0.32550206  0.87823469  0.27381928  1
  H  H319  1  0.44407895  0.96101304  0.26655849  1
  H  H320  1  0.39604431  0.79154681  0.14767808  1
  H  H321  1  0.45953946  0.88633398  0.02633308  1
  H  H322  1  0.26107415  0.89306714  0.01186692  1
  H  H323  1  0.44539310  0.98237225  0.02599741  1
  C  C324  1  0.44203877  0.90620885  0.48692161  1
  H  H325  1  0.33294984  0.93024570  0.01327266  1
  C  C326  1  0.31399087  0.78395418  0.00748321  1
  C  C327  1  0.47385827  0.94221315  0.49340095  1
  C  C328  1  0.46802303  0.67623065  0.63212527  1
  C  C329  1  0.46047957  0.72192394  0.71342711  1
  C  C330  1  0.42364499  0.72328850  0.77300815  1
  H  H331  1  0.40561733  0.69176529  0.75795021  1
  C  C332  1  0.31736720  0.72092419  0.67626513  1
  O  O333  1  0.30406373  0.56362256  0.72782076  1
  H  H334  1  0.38014277  0.66899052  0.88710428  1
  C  C335  1  0.35945618  0.70207587  0.91196101  1
  O  O336  1  0.44324189  0.51997872  0.91254145  1
  C  C337  1  0.31083745  0.66822051  0.67679577  1
  C  C338  1  0.27556575  0.64513875  0.70967046  1
  Cu  Cu339  1  0.46687347  0.58348127  0.88095262  1
  C  C340  1  0.27501000  0.58712856  0.72031777  1
  H  H341  1  0.33478210  0.64242022  0.66061259  1
  C  C342  1  0.32384321  0.69216744  0.95621054  1
  C  C343  1  0.43457246  0.65228366  0.58692409  1
  H  H344  1  0.40574889  0.66626047  0.61284609  1
  H  H345  1  0.38589740  0.52960246  0.59207862  1
  H  H346  1  0.34635399  0.73802151  0.67909360  1
  H  H347  1  0.31319943  0.65315530  0.96232076  1
  H  H348  1  0.31625877  0.52619280  0.50025101  1
  C  C349  1  0.43790393  0.60887025  0.51315051  1
  C  C350  1  0.37455891  0.55581616  0.51616194  1
  H  H351  1  0.49953873  0.98887821  0.92083618  1
  C  C352  1  0.28504753  0.75373016  0.70842382  1
  C  C353  1  0.46796700  0.80280120  0.81728566  1
  C  C354  1  0.32605223  0.81657345  0.62286655  1
  C  C355  1  0.25875246  0.97082371  0.81688954  1
  C  C356  1  0.37043058  0.75484148  0.89050576  1
  C  C357  1  0.42968721  0.81385003  0.86174231  1
  H  H358  1  0.41596253  0.97849392  0.88714336  1
  H  H359  1  0.49511985  0.87852224  0.64701432  1
  H  H360  1  0.35067150  0.93514482  0.72008838  1
  C  C361  1  0.30650323  0.95142712  0.98196655  1
  C  C362  1  0.27800551  0.84624845  0.78888817  1
  H  H363  1  0.40041090  0.94350273  0.60650491  1
  H  H364  1  0.46093966  0.90624361  0.86339965  1
  C  C365  1  0.34736493  0.79577462  0.94027478  1
  C  C366  1  0.33375613  0.90020443  0.71349592  1
  C  C367  1  0.38057806  0.87050967  0.53692008  1
  C  C368  1  0.34542969  0.86419552  0.62265941  1
  C  C369  1  0.44147374  0.90222204  0.94585290  1
  C  C370  1  0.47418278  0.99147517  0.54425293  1
  C  C371  1  0.40713318  0.91176326  0.54738067  1
  C  C372  1  0.28943358  0.93872706  0.86419162  1
  C  C373  1  0.42498410  0.95576082  0.97597687  1
  C  C374  1  0.29520400  0.80845674  0.70656352  1
  O  O375  1  0.41562038  0.85442151  0.91617235  1
  C  C376  1  0.41013868  0.76582426  0.84273257  1
  H  H377  1  0.35804647  0.83494035  0.93474538  1
  C  C378  1  0.48494340  0.76253400  0.75226427  1
  H  H379  1  0.33680658  0.78473911  0.56625389  1
  C  C380  1  0.30141308  0.89192207  0.79074361  1
  C  C381  1  0.64262641  0.14196148  0.18614536  1
  C  C382  1  0.60125433  0.13282867  0.19463585  1
  O  O383  1  0.66354792  0.12048620  0.26895970  1
  C  C384  1  0.58631811  0.10449121  0.29900897  1
  C  C385  1  0.57387998  0.15670902  0.11295147  1
  O  O386  1  0.65677655  0.17171902  0.10345957  1
  Cu  Cu387  1  0.70956721  0.15223845  0.31698346  1
  C  C388  1  0.54743120  0.09760145  0.31274277  1
  C  C389  1  0.53431776  0.15301467  0.13414950  1
  Cu  Cu390  1  0.69739440  0.21022646  0.13006972  1
  C  C391  1  0.71790709  0.02060188  0.06506422  1
  H  H392  1  0.52790585  0.04232903  0.16921500  1
  H  H393  1  0.60787081  0.08909480  0.36666523  1
  O  O394  1  0.73847738  0.24361062  0.18320456  1
  H  H395  1  0.53560893  0.07529865  0.39552545  1
  C  C396  1  0.51896768  0.11923881  0.22962425  1
  H  H397  1  0.60759172  0.03677200  0.20930680  1
  H  H398  1  0.51600631  0.17911294  0.08074577  1
  H  H399  1  0.58611445  0.18240748  0.03552589  1
  H  H400  1  0.58200344  0.01089726  0.34418562  1
  C  C401  1  0.74060393  0.04635098  0.15732618  1
  C  C402  1  0.50396904  0.03467407  0.09893503  1
  C  C403  1  0.66133681  0.24668112  0.44887229  1
  H  H404  1  0.60090046  0.24390931  0.43873949  1
  O  O405  1  0.69693246  0.17365276  0.49166157  1
  H  H406  1  0.64830896  0.02198454  0.45446748  1
  H  H407  1  0.72231215  0.25670578  0.45278510  1
  C  C408  1  0.69684134  0.41675142  0.02976266  1
  C  C409  1  0.66656865  0.45141377  0.01359601  1
  C  C410  1  0.62583154  0.26692765  0.42045348  1
  H  H411  1  0.50878858  0.41360596  0.33105578  1
  H  H412  1  0.51350552  0.48496202  0.34294317  1
  H  H413  1  0.71854831  0.34011752  0.31913653  1
  C  C414  1  0.69178009  0.37580106  0.11826748  1
  H  H415  1  0.56696862  0.36806458  0.01056345  1
  C  C416  1  0.60608175  0.48315184  0.04000670  1
  O  O417  1  0.66926822  0.49269205  0.35384203  1
  C  C418  1  0.55814440  0.43862893  0.22631557  1
  H  H419  1  0.54202080  0.42721438  0.14360415  1
  H  H420  1  0.71278665  0.34484163  0.12934885  1
  O  O421  1  0.59257743  0.40161317  0.24645653  1
  C  C422  1  0.62507306  0.30957081  0.34313244  1
  H  H423  1  0.57073569  0.47480308  0.20230901  1
  C  C424  1  0.65774498  0.37231039  0.19073444  1
  H  H425  1  0.54189605  0.44016150  0.43067677  1
  C  C426  1  0.69464655  0.31717647  0.34757619  1
  H  H427  1  0.59827159  0.32260789  0.31261921  1
  C  C428  1  0.62367325  0.40424128  0.17907432  1
  C  C429  1  0.52808449  0.44552793  0.33564681  1
  C  C430  1  0.63218864  0.44030651  0.08114894  1
  C  C431  1  0.65843908  0.33374293  0.29458137  1
  Cu  Cu432  1  0.71733890  0.47181406  0.30643273  1
  C  C433  1  0.69527232  0.27053799  0.41115964  1
  H  H434  1  0.61515209  0.38504145  0.46691107  1
  C  C435  1  0.55237654  0.12689404  0.67190595  1
  C  C436  1  0.54995899  0.07994419  0.61128474  1
  C  C437  1  0.72073358  0.22222877  0.84082950  1
  O  O438  1  0.58170891  0.05165361  0.56625963  1
  C  C439  1  0.72999983  0.02115752  0.70291549  1
  C  C440  1  0.61802878  0.06316598  0.61038487  1
  O  O441  1  0.52923815  0.15769821  0.72384395  1
  H  H442  1  0.61557668  0.05610663  0.72034738  1
  H  H443  1  0.58166639  0.14266730  0.68468811  1
  C  C444  1  0.65349119  0.03251494  0.56101435  1
  H  H445  1  0.62081562  0.10819557  0.59832401  1
  C  C446  1  0.68225898  0.23417922  0.87004392  1
  C  C447  1  0.72693464  0.12562767  0.89227753  1
  H  H448  1  0.66409398  0.20444071  0.92345035  1
  H  H449  1  0.69547129  0.12141399  0.88700172  1
  H  H450  1  0.68017885  0.05613103  0.55309184  1
  H  H451  1  0.60374855  0.22852781  0.70558177  1
  C  C452  1  0.50863778  0.01854954  0.55273152  1
  C  C453  1  0.51044569  0.06627135  0.61495080  1
  C  C454  1  0.74311110  0.17447835  0.87298821  1
  O  O455  1  0.63870306  0.17599096  0.56358717  1
  C  C456  1  0.72731048  0.03596845  0.93618559  1
  H  H457  1  0.73719398  0.06221162  0.68475625  1
  H  H458  1  0.54732988  0.00211509  0.96523650  1
  C  C459  1  0.71996137  0.00450965  0.82821023  1
  C  C460  1  0.66596037  0.19692282  0.51909754  1
  H  H461  1  0.58418834  0.41209570  0.58948255  1
  C  C462  1  0.55614915  0.27406553  0.79044894  1
  H  H463  1  0.63566212  0.33860072  0.99625069  1
  C  C464  1  0.62754088  0.36377680  0.66782480  1
  C  C465  1  0.74162470  0.48067898  0.95374273  1
  O  O466  1  0.50661271  0.38889464  0.92746608  1
  H  H467  1  0.67076626  0.48156087  0.94144934  1
  H  H468  1  0.53268073  0.25472101  0.73663986  1
  C  C469  1  0.57579477  0.47783843  0.95032724  1
  H  H470  1  0.56844147  0.43944281  0.91115741  1
  H  H471  1  0.62793928  0.37902710  0.76980169  1
  C  C472  1  0.59374356  0.25726395  0.77319489  1
  C  C473  1  0.74284222  0.25769694  0.76674616  1
  C  C474  1  0.66462630  0.27608986  0.81264802  1
  C  C475  1  0.74982794  0.32716054  0.62163270  1
  C  C476  1  0.73514430  0.42725218  0.96315779  1
  C  C477  1  0.50680752  0.33805280  0.90196170  1
  C  C478  1  0.61290696  0.32063344  0.94013310  1
  O  O479  1  0.52395326  0.42317008  0.66024697  1
  O  O480  1  0.54098765  0.34810381  0.58158773  1
  H  H481  1  0.62988578  0.43917843  0.57477634  1
  O  O482  1  0.67153801  0.34943268  0.66405020  1
  C  C483  1  0.74318286  0.38092806  0.61638390  1
  C  C484  1  0.68413720  0.30940568  0.72349360  1
  C  C485  1  0.54569387  0.31494296  0.86891204  1
  C  C486  1  0.57574194  0.33937101  0.93789754  1
  C  C487  1  0.61375358  0.40156960  0.56286208  1
  C  C488  1  0.51937603  0.38174898  0.58964145  1
  C  C489  1  0.72431054  0.29863689  0.71415431  1
  C  C490  1  0.62190149  0.28236290  0.84730256  1
  H  H491  1  0.61244605  0.32717239  0.66378864  1
  H  H492  1  0.72710829  0.39964196  0.69258856  1
  H  H493  1  0.53559411  0.56812846  0.30695109  1
  C  C494  1  0.55655237  0.56261965  0.38475886  1
  C  C495  1  0.59164218  0.53536306  0.36993276  1
  H  H496  1  0.64298461  0.53443917  0.14436453  1
  C  C497  1  0.61876262  0.53320981  0.07848122  1
  H  H498  1  0.60204210  0.52335085  0.27713461  1
  O  O499  1  0.55708535  0.73078025  0.38699632  1
  Cu  Cu500  1  0.53187773  0.67223404  0.14423942  1
  O  O501  1  0.56492008  0.72442886  0.17993601  1
  O  O502  1  0.73793540  0.53741647  0.30148445  1
  C  C503  1  0.65700028  0.50939268  0.46789367  1
  H  H504  1  0.60320902  0.61425010  0.07497337  1
  C  C505  1  0.59891543  0.57673838  0.04118861  1
  C  C506  1  0.57431409  0.74364793  0.29261997  1
  C  C507  1  0.61712682  0.53247715  0.47474818  1
  C  C508  1  0.59545555  0.99989483  0.25065292  1
  C  C509  1  0.65469716  0.86386889  0.28936915  1
  C  C510  1  0.63000693  0.96456795  0.27049171  1
  O  O511  1  0.67020894  0.98515574  0.28517621  1
  H  H512  1  0.57479629  0.98374490  0.18116470  1
  O  O513  1  0.61051711  0.94002934  0.00293249  1
  C  C514  1  0.61456724  0.80577107  0.16581965  1
  C  C515  1  0.61070837  0.80922592  0.40538041  1
  H  H516  1  0.60655740  0.79092829  0.06749605  1
  C  C517  1  0.50256624  0.91472829  0.43082035  1
  C  C518  1  0.69097075  0.89628895  0.29727659  1
  H  H519  1  0.57072150  0.87402314  0.05547483  1
  H  H520  1  0.62878819  0.93714286  0.18869527  1
  C  C521  1  0.63819885  0.84602695  0.41062597  1
  H  H522  1  0.53189922  0.92415230  0.40100808  1
  C  C523  1  0.64038440  0.84605575  0.16799403  1
  H  H524  1  0.70321842  0.98628019  0.09073715  1
  H  H525  1  0.50892610  0.81353390  0.02620749  1
  H  H526  1  0.71136045  0.81979339  0.31788970  1
  C  C527  1  0.69697879  0.95061600  0.29272449  1
  H  H528  1  0.62641136  0.94205237  0.36210827  1
  C  C529  1  0.73598655  0.96587003  0.29139003  1
  C  C530  1  0.72027569  0.86043597  0.30331982  1
  C  C531  1  0.60144580  0.78817478  0.28273101  1
  H  H532  1  0.64706615  0.86520864  0.07566527  1
  H  H533  1  0.52022644  0.95397432  0.04333920  1
  C  C534  1  0.51871219  0.99274415  0.00341135  1
  H  H535  1  0.59559718  0.79745178  0.49210560  1
  H  H536  1  0.53115418  0.66831088  0.63408206  1
  C  C537  1  0.57079234  0.57814272  0.60874267  1
  H  H538  1  0.56346946  0.59235206  0.70365907  1
  C  C539  1  0.60677420  0.55581584  0.59272265  1
  C  C540  1  0.55515985  0.52094244  0.90952850  1
  C  C541  1  0.54642255  0.61477889  0.92004030  1
  C  C542  1  0.56682578  0.56889512  0.95616945  1
  C  C543  1  0.50464334  0.65343988  0.60207661  1
  O  O544  1  0.55420531  0.65647049  0.97008761  1
  H  H545  1  0.62569406  0.55058013  0.67952386  1
  H  H546  1  0.73033290  0.63725003  0.68582760  1
  C  C547  1  0.50524575  0.60830641  0.53573468  1
  H  H548  1  0.53188329  0.51982072  0.83781143  1
  O  O549  1  0.51810509  0.60714195  0.84220711  1
  H  H550  1  0.74214407  0.54614014  0.72368126  1
  C  C551  1  0.74774396  0.62395703  0.76708591  1
  O  O552  1  0.73354062  0.72256302  0.73942854  1
  O  O553  1  0.67518246  0.50513776  0.56309929  1
  C  C554  1  0.54367375  0.58280102  0.50507241  1
  H  H555  1  0.72347605  0.51103043  0.99522277  1
  H  H556  1  0.74162010  0.99196282  0.50717656  1
  H  H557  1  0.53437491  0.99723613  0.51615452  1
  H  H558  1  0.66047568  0.99907252  0.62599492  1
  O  O559  1  0.74349702  0.88429493  0.85184422  1
  C  C560  1  0.55283856  0.87340171  0.96797654  1
  H  H561  1  0.65018394  0.86120709  0.50185360  1
  C  C562  1  0.73705122  0.93466094  0.66766126  1
  O  O563  1  0.61137611  0.97032347  0.81014791  1
  C  C564  1  0.74065076  0.89567330  0.72347928  1
  C  C565  1  0.56232953  0.90801228  0.87161586  1
  C  C566  1  0.73310796  0.98126889  0.60868223  1
  H  H567  1  0.54971725  0.94013814  0.68668805  1
  C  C568  1  0.54101956  0.91319618  0.76134067  1
  C  C569  1  0.50223983  0.84189407  0.83796061  1
  C  C570  1  0.52001545  0.84117384  0.95471124  1
  H  H571  1  0.70999594  0.96347570  0.83380579  1
  C  C572  1  0.59858404  0.94582199  0.89523453  1
  C  C573  1  0.51121465  0.87760060  0.73771413  1
  Cu  Cu574  1  0.73830005  0.78439818  0.67027122  1
  H  H575  1  0.51482888  0.76595575  0.73119961  1
  O  O576  1  0.74391001  0.85031581  0.62498589  1
  C  C577  1  0.94853970  0.20485757  0.16878010  1
  O  O578  1  0.93051763  0.15981860  0.18488439  1
  C  C579  1  0.95429013  0.10588422  0.19784706  1
  H  H580  1  0.89433976  0.19440011  0.32980727  1
  C  C581  1  0.93842457  0.05088767  0.18922897  1
  H  H582  1  0.80433289  0.09608821  0.24106552  1
  C  C583  1  0.81014889  0.06995163  0.31883036  1
  H  H584  1  0.87314647  0.12671351  0.28446583  1
  C  C585  1  0.83301395  0.20706889  0.30042590  1
  C  C586  1  0.87190776  0.21511258  0.28033420  1
  H  H587  1  0.82287314  0.17733115  0.37273682  1
  C  C588  1  0.76608938  0.22331304  0.25058006  1
  C  C589  1  0.80672830  0.23673215  0.23040172  1
  C  C590  1  0.87555491  0.10720554  0.38459373  1
  C  C591  1  0.78413168  0.03165118  0.34909064  1
  H  H592  1  0.91221868  0.04175970  0.24718983  1
  H  H593  1  0.97128812  0.11339325  0.11308634  1
  H  H594  1  0.96144381  0.02410640  0.21323679  1
  H  H595  1  0.92892137  0.04527278  0.08860963  1
  C  C596  1  0.98829430  0.21038419  0.13583174  1
  C  C597  1  0.84381388  0.06819992  0.39828997  1
  H  H598  1  0.97127090  0.11266133  0.28238307  1
  H  H599  1  0.85602024  0.18553555  0.05351841  1
  O  O600  1  0.90175298  0.11827598  0.44916350  1
  H  H601  1  0.75701437  0.07951013  0.12405017  1
  O  O602  1  0.75775238  0.19046891  0.32682377  1
  H  H603  1  0.79180389  0.00670068  0.43594183  1
  C  C604  1  0.75078038  0.01981121  0.27339660  1
  C  C605  1  0.88610647  0.25308464  0.19531362  1
  C  C606  1  0.92849076  0.25275368  0.16753814  1
  H  H607  1  0.75020548  0.44920498  0.49378731  1
  O  O608  1  0.76373336  0.44897566  0.25224995  1
  C  C609  1  0.81773195  0.27234843  0.13313380  1
  C  C610  1  0.94323177  0.29994926  0.14107807  1
  C  C611  1  0.78122845  0.40645612  0.28479212  1
  C  C612  1  0.85723501  0.28242311  0.12732157  1
  H  H613  1  0.86657753  0.30819174  0.05156944  1
  H  H614  1  0.79732128  0.29318309  0.07012538  1
  C  C615  1  0.98390253  0.30417223  0.11546001  1
  C  C616  1  0.78456988  0.32659889  0.42132661  1
  O  O617  1  0.80323779  0.38244277  0.21362518  1
  C  C618  1  0.77274143  0.37833588  0.40926917  1
  H  H619  1  0.80334299  0.30806076  0.34703341  1
  O  O620  1  0.99534417  0.32572356  0.40355353  1
  H  H621  1  0.92271729  0.33344411  0.12324534  1
  H  H622  1  0.84740936  0.39428605  0.00469321  1
  H  H623  1  0.89023066  0.47128085  0.49502952  1
  C  C624  1  0.84774574  0.14358195  0.86527845  1
  C  C625  1  0.92431258  0.16990813  0.81094743  1
  C  C626  1  0.86624488  0.12162021  0.75624290  1
  C  C627  1  0.90308994  0.13802323  0.72430028  1
  H  H628  1  0.84649662  0.10063031  0.69369347  1
  C  C629  1  0.96261999  0.18595724  0.77642141  1
  H  H630  1  0.79720820  0.21420844  0.85973032  1
  C  C631  1  0.78430105  0.17502370  0.86883292  1
  H  H632  1  0.91568346  0.12449146  0.63279615  1
  O  O633  1  0.97657594  0.17320634  0.66702676  1
  C  C634  1  0.80519925  0.13055491  0.88911368  1
  C  C635  1  0.90650956  0.18726313  0.92343448  1
  O  O636  1  0.98059532  0.21508693  0.84938800  1
  C  C637  1  0.79181795  0.08127713  0.92305055  1
  C  C638  1  0.84414800  0.03703968  0.51049213  1
  O  O639  1  0.81541802  0.04317273  0.93207957  1
  C  C640  1  0.86923824  0.17303847  0.95757052  1
  O  O641  1  0.84789328  0.01472947  0.60578219  1
  H  H642  1  0.77402747  0.24895353  0.74886147  1
  H  H643  1  0.92470947  0.21473003  0.97955859  1
  C  C644  1  0.75052979  0.08401287  0.91314872  1
  H  H645  1  0.94369435  0.49857945  0.98520972  1
  H  H646  1  0.91729079  0.48116812  0.63949838  1
  C  C647  1  0.99500871  0.48705299  0.63176219  1
  C  C648  1  0.77515190  0.49769015  0.89261315  1
  Cu  Cu649  1  0.96751047  0.30104473  0.52075183  1
  C  C650  1  0.95713589  0.49364052  0.89238426  1
  H  H651  1  0.78115182  0.25958914  0.54567220  1
  H  H652  1  0.75475863  0.35441065  0.89865325  1
  O  O653  1  0.83415449  0.48788084  0.76644769  1
  H  H654  1  0.81326356  0.35829764  0.61204153  1
  C  C655  1  0.80393570  0.46909316  0.82766101  1
  C  C656  1  0.85450195  0.37594807  0.90970861  1
  H  H657  1  0.87134418  0.42562957  0.73664398  1
  C  C658  1  0.85764862  0.45712263  0.67670766  1
  C  C659  1  0.87045448  0.33120503  0.66833658  1
  O  O660  1  0.93665176  0.28415563  0.64261997  1
  H  H661  1  0.96028125  0.37537601  0.92865757  1
  H  H662  1  0.91134134  0.35172139  0.97391029  1
  C  C663  1  0.98772402  0.38489995  0.97999926  1
  C  C664  1  0.98712793  0.45968967  0.85848420  1
  C  C665  1  0.83576038  0.35449017  0.68979745  1
  C  C666  1  0.88737437  0.48562774  0.59487735  1
  H  H667  1  0.88035643  0.32298155  0.57301194  1
  C  C668  1  0.82683219  0.37839286  0.80993536  1
  C  C669  1  0.89617593  0.33216233  0.77219460  1
  C  C670  1  0.93350391  0.30764759  0.74665253  1
  C  C671  1  0.88929949  0.35238577  0.89386262  1
  C  C672  1  0.76159905  0.39448403  0.90286308  1
  H  H673  1  0.83181611  0.43730567  0.62195861  1
  C  C674  1  0.79422133  0.41573866  0.84127166  1
  O  O675  1  0.96162573  0.31046199  0.82489245  1
  C  C676  1  0.75376581  0.40758290  0.50512551  1
  C  C677  1  0.77485116  0.30081733  0.53374788  1
  C  C678  1  0.76377002  0.63736390  0.29230795  1
  C  C679  1  0.77515421  0.68830464  0.28110692  1
  C  C680  1  0.79913468  0.70601694  0.38601699  1
  C  C681  1  0.88348031  0.68323794  0.38319925  1
  H  H682  1  0.76835883  0.71444809  0.20024041  1
  C  C683  1  0.77035978  0.60876266  0.40538668  1
  C  C684  1  0.93464539  0.58241844  0.11336202  1
  C  C685  1  0.92038873  0.65098478  0.37602730  1
  C  C686  1  0.97058851  0.58118593  0.15960576  1
  C  C687  1  0.75732143  0.55485289  0.40303828  1
  H  H688  1  0.88499509  0.72801482  0.14986542  1
  C  C689  1  0.96997656  0.67134451  0.06850637  1
  H  H690  1  0.86120431  0.66929831  0.31520978  1
  C  C691  1  0.91210313  0.61388490  0.04020110  1
  H  H692  1  0.98251865  0.55064751  0.21446329  1
  H  H693  1  0.94117676  0.66532684  0.44784209  1
  H  H694  1  0.93477948  0.65589552  0.28242522  1
  H  H695  1  0.75008496  0.61773581  0.21190679  1
  O  O696  1  0.98578177  0.71905273  0.05786640  1
  C  C697  1  0.88123895  0.72830468  0.04537553  1
  C  C698  1  0.93342124  0.66049979  0.02292168  1
  C  C699  1  0.98946068  0.63128564  0.13066138  1
  H  H700  1  0.87003973  0.67965232  0.47806334  1
  H  H701  1  0.91450572  0.60846192  0.40090013  1
  O  O702  1  0.95921407  0.54845742  0.44496134  1
  O  O703  1  0.88722147  0.74024366  0.34551909  1
  H  H704  1  0.81156842  0.57704082  0.05932988  1
  H  H705  1  0.79589216  0.66928977  0.02341420  1
  O  O706  1  0.76772719  0.52764404  0.48731642  1
  H  H707  1  0.93149012  0.92554891  0.03375616  1
  H  H708  1  0.78066843  0.98743539  0.01358031  1
  C  C709  1  0.99859424  0.91996184  0.14887114  1
  O  O710  1  0.99542525  0.94505419  0.05653351  1
  C  C711  1  0.79136057  0.84168800  0.31866165  1
  H  H712  1  0.99231056  0.85772959  0.36841882  1
  C  C713  1  0.81650446  0.75810367  0.35521574  1
  C  C714  1  0.96388207  0.76326829  0.01160950  1
  H  H715  1  0.92860963  0.81647482  0.43390123  1
  H  H716  1  0.94018338  0.76943423  0.07478519  1
  H  H717  1  0.83550953  0.89758355  0.28670595  1
  C  C718  1  0.89720017  0.87536243  0.15232506  1
  H  H719  1  0.79429454  0.94354344  0.27333756  1
  C  C720  1  0.75883772  0.87870555  0.30871823  1
  C  C721  1  0.78427665  0.78930437  0.34428083  1
  C  C722  1  0.93191691  0.84013560  0.34541847  1
  C  C723  1  0.82982237  0.85783505  0.30060120  1
  C  C724  1  0.85943058  0.82218511  0.30527168  1
  C  C725  1  0.96291514  0.89221510  0.19482511  1
  C  C726  1  0.96610272  0.86390567  0.30846587  1
  C  C727  1  0.85707360  0.76975413  0.34512030  1
  H  H728  1  0.86884455  0.87766591  0.10109839  1
  C  C729  1  0.76566063  0.93053794  0.29137318  1
  C  C730  1  0.89821226  0.84312728  0.26460047  1
  C  C731  1  0.93069471  0.90082060  0.11548166  1
  H  H732  1  0.75414603  0.77475379  0.34515549  1
  H  H733  1  0.84072799  0.78844196  0.05709554  1
  H  H734  1  0.81196127  0.91423026  0.01922380  1
  H  H735  1  0.97826766  0.84560182  0.05602416  1
  H  H736  1  0.92700319  0.55690066  0.80187061  1
  H  H737  1  0.91722869  0.67127551  0.76635130  1
  C  C738  1  0.89858088  0.69380184  0.83016478  1
  C  C739  1  0.96657621  0.52326384  0.66331733  1
  C  C740  1  0.94946442  0.52557271  0.78437524  1
  H  H741  1  0.81893443  0.69256193  0.58517027  1
  C  C742  1  0.78658418  0.64148456  0.95594044  1
  H  H743  1  0.78763465  0.60728895  0.60951017  1
  C  C744  1  0.95407517  0.56214380  0.55766786  1
  O  O745  1  0.93140316  0.59536247  0.59068811  1
  C  C746  1  0.77752772  0.55674786  0.89114526  1
  C  C747  1  0.79354808  0.59119351  0.97770286  1
  C  C748  1  0.87542320  0.72975435  0.77113831  1
  H  H749  1  0.87445557  0.73494992  0.66938224  1
  H  H750  1  0.95310168  0.74802320  0.92064414  1
  C  C751  1  0.76194660  0.65860792  0.85623324  1
  C  C752  1  0.90367125  0.69530399  0.96349150  1
  O  O753  1  0.76340405  0.74866066  0.91243279  1
  C  C754  1  0.75275242  0.71242774  0.83738483  1
  C  C755  1  0.75386219  0.57217918  0.78932208  1
  H  H756  1  0.87730940  0.52607693  0.59092069  1
  C  C757  1  0.78749059  0.62847462  0.51516314  1
  C  C758  1  0.80395547  0.67719076  0.50214003  1
  H  H759  1  0.88336173  0.60467432  0.99964340  1
  H  H760  1  0.98528458  0.82595135  0.89229045  1
  O  O761  1  0.83213651  0.80817907  0.66787249  1
  Cu  Cu762  1  0.79088786  0.83041706  0.56550742  1
  C  C763  1  0.98679954  0.81288221  0.99337212  1
  C  C764  1  0.85656515  0.76210980  0.99060755  1
  Cu  Cu765  1  0.75707605  0.81790839  0.87822174  1
  C  C766  1  0.85516302  0.76282373  0.85157438  1
  C  C767  1  0.83176477  0.80268638  0.78940625  1
  H  H768  1  0.78780962  0.98603995  0.83048482  1
  O  O769  1  0.81021378  0.82736599  0.86179385  1
  H  H770  1  0.82941293  0.91877243  0.85491237  1
  C  C771  1  0.82684558  0.93929190  0.94777735  1
  C  C772  1  0.80145422  0.98592727  0.92814693  1
  H  H773  1  0.85781522  0.94748242  0.98623999  1
