# generated using pymatgen
data_CuH15C22O5
_symmetry_space_group_name_H-M   'P 1'
_cell_length_a   27.46059530
_cell_length_b   30.48977978
_cell_length_c   10.31620732
_cell_angle_alpha   90.00000000
_cell_angle_beta   90.00000000
_cell_angle_gamma   90.00000000
_symmetry_Int_Tables_number   1
_chemical_formula_structural   CuH15C22O5
_chemical_formula_sum   'Cu18 H270 C396 O90'
_cell_volume   8637.42514734
_cell_formula_units_Z   18
loop_
 _symmetry_equiv_pos_site_id
 _symmetry_equiv_pos_as_xyz
  1  'x, y, z'
loop_
 _atom_site_type_symbol
 _atom_site_label
 _atom_site_symmetry_multiplicity
 _atom_site_fract_x
 _atom_site_fract_y
 _atom_site_fract_z
 _atom_site_occupancy
  O  O0  1  0.15786612  0.14760539  0.36142740  1
  C  C1  1  0.15719559  0.18289279  0.29594279  1
  H  H2  1  0.09670220  0.12141777  0.20589966  1
  C  C3  1  0.12683262  0.18646267  0.18081474  1
  C  C4  1  0.09926550  0.15056406  0.14374629  1
  O  O5  1  0.18324846  0.21394673  0.34247782  1
  Cu  Cu6  1  0.20423765  0.10388047  0.39994238  1
  C  C7  1  0.13108194  0.22608012  0.10568596  1
  O  O8  1  0.16629763  0.05860303  0.29883493  1
  C  C9  1  0.18655295  0.04467592  0.19964304  1
  H  H10  1  0.04262336  0.21425563  0.29470774  1
  C  C11  1  0.06562784  0.15789128  0.04651295  1
  O  O12  1  0.20507160  0.07289118  0.11816639  1
  C  C13  1  0.01362724  0.23996164  0.29228160  1
  O  O14  1  0.01889152  0.14751298  0.31727962  1
  Cu  Cu15  1  0.24930063  0.22362626  0.37502497  1
  H  H16  1  0.04087475  0.13160140  0.01640137  1
  H  H17  1  0.00227385  0.02462067  0.38531929  1
  C  C18  1  0.02404338  0.10766272  0.34300174  1
  H  H19  1  0.04873413  0.09644387  0.41941148  1
  C  C20  1  0.09767792  0.23105762  0.00839429  1
  H  H21  1  0.23351525  0.01780473  0.00058487  1
  H  H22  1  0.16043579  0.25138527  0.12262107  1
  C  C23  1  0.01779310  0.40419395  0.00730564  1
  O  O24  1  0.00768658  0.49380252  0.21814326  1
  H  H25  1  0.02202937  0.34773285  0.13545600  1
  O  O26  1  0.02014273  0.36062549  0.46474804  1
  C  C27  1  0.20165939  0.36108461  0.09754970  1
  C  C28  1  0.07391827  0.39658787  0.19038899  1
  C  C29  1  0.03609313  0.37989013  0.11450361  1
  C  C30  1  0.09558759  0.43566778  0.14553463  1
  C  C31  1  0.22146556  0.30990528  0.27666372  1
  H  H32  1  0.08716005  0.37862737  0.27256708  1
  C  C33  1  0.14209130  0.45240330  0.20476670  1
  O  O34  1  0.18941122  0.32220323  0.34659603  1
  H  H35  1  0.04809145  0.28685630  0.42193613  1
  O  O36  1  0.16139094  0.43389621  0.29210688  1
  O  O37  1  0.15745591  0.49158595  0.17264146  1
  H  H38  1  0.16611324  0.36966627  0.14621909  1
  C  C39  1  0.01744829  0.27885712  0.35312185  1
  C  C40  1  0.23050325  0.32621185  0.14238075  1
  C  C41  1  0.07696358  0.46107929  0.04567416  1
  H  H42  1  0.09120786  0.49386666  0.02358778  1
  C  C43  1  0.18773642  0.16385756  0.80064952  1
  H  H44  1  0.16835340  0.17234280  0.71381580  1
  H  H45  1  0.20186910  0.19302401  0.84592240  1
  C  C46  1  0.15687454  0.13384521  0.89044883  1
  H  H47  1  0.16575303  0.09730799  0.86811896  1
  H  H48  1  0.00403693  0.03009490  0.63827410  1
  C  C49  1  0.16049082  0.23433675  0.62321552  1
  H  H50  1  0.11751706  0.13639438  0.86926502  1
  C  C51  1  0.20803551  0.24351882  0.68311186  1
  O  O52  1  0.23970954  0.14548838  0.75165168  1
  H  H53  1  0.16154622  0.14075809  0.99540233  1
  C  C54  1  0.06331459  0.19682601  0.97589388  1
  H  H55  1  0.16432182  0.20567158  0.55377104  1
  C  C56  1  0.02172170  0.20673555  0.88525286  1
  H  H57  1  0.06077403  0.05829840  0.59839920  1
  O  O58  1  0.02787395  0.13753924  0.79128104  1
  C  C59  1  0.00657532  0.24954851  0.90696910  1
  C  C60  1  0.00741634  0.10276904  0.69957257  1
  H  H61  1  0.00133400  0.12066507  0.60799665  1
  C  C62  1  0.03039102  0.05807846  0.67478642  1
  C  C63  1  0.00561021  0.17483396  0.79309681  1
  H  H64  1  0.04639477  0.04798246  0.77265367  1
  H  H65  1  0.09794782  0.26186378  0.94831097  1
  C  C66  1  0.21709879  0.49590009  0.65989108  1
  H  H67  1  0.20524196  0.41912132  0.97150792  1
  H  H68  1  0.17691482  0.33437961  0.87136973  1
  H  H69  1  0.02500409  0.26849625  0.98087505  1
  C  C70  1  0.09584150  0.33114634  0.74905185  1
  C  C71  1  0.13223497  0.29442852  0.73349164  1
  C  C72  1  0.06573804  0.45602747  0.69353846  1
  H  H73  1  0.13740976  0.46496041  0.79458631  1
  C  C74  1  0.03827116  0.47015869  0.58325645  1
  C  C75  1  0.17517777  0.30403294  0.80149048  1
  Cu  Cu76  1  0.01237300  0.37055099  0.64566198  1
  H  H77  1  0.01783649  0.32590368  0.96755479  1
  H  H78  1  0.05338147  0.43034283  0.76143087  1
  C  C79  1  0.03610461  0.44609295  0.97666069  1
  H  H80  1  0.08424864  0.25163718  0.60646958  1
  C  C81  1  0.11936113  0.25793594  0.65149102  1
  C  C82  1  0.22184490  0.38728232  0.99594518  1
  H  H83  1  0.21122668  0.46189073  0.62692167  1
  O  O84  1  0.10650034  0.36245105  0.81700713  1
  C  C85  1  0.21501159  0.27693745  0.77724883  1
  H  H86  1  0.23722559  0.44698671  0.82401724  1
  C  C87  1  0.11164934  0.47181488  0.71432697  1
  H  H88  1  0.01754454  0.47128463  0.91344996  1
  O  O89  1  0.05252900  0.32660221  0.69669430  1
  H  H90  1  0.24975333  0.28112232  0.83064738  1
  O  O91  1  0.16204578  0.57757504  0.28129074  1
  C  C92  1  0.16422054  0.60547490  0.18873372  1
  O  O93  1  0.12593041  0.60790451  0.11934402  1
  H  H94  1  0.10470209  0.67889859  0.24077460  1
  Cu  Cu95  1  0.06588935  0.59111943  0.19050333  1
  C  C96  1  0.20688512  0.63116128  0.15546396  1
  C  C97  1  0.11453082  0.69686921  0.15463727  1
  C  C98  1  0.15675114  0.72244882  0.14857750  1
  O  O99  1  0.03621221  0.64606067  0.15828562  1
  O  O100  1  0.00997934  0.56539722  0.27304609  1
  H  H101  1  0.18376863  0.71977863  0.22425015  1
  C  C102  1  0.20828170  0.65623814  0.04341291  1
  C  C103  1  0.04108415  0.66842668  0.05261541  1
  H  H104  1  0.13646983  0.70355461  0.41718303  1
  Cu  Cu105  1  0.20286570  0.52833383  0.25345245  1
  H  H106  1  0.03526239  0.51076977  0.41503534  1
  H  H107  1  0.12250546  0.53850452  0.44301012  1
  C  C108  1  0.24502249  0.62878218  0.24720145  1
  C  C109  1  0.03768847  0.70981361  0.48514985  1
  H  H110  1  0.23828247  0.60970582  0.33986385  1
  C  C111  1  0.08336198  0.69822607  0.04564661  1
  C  C112  1  0.12443939  0.73707795  0.44532508  1
  C  C113  1  0.01543521  0.63884419  0.47599426  1
  C  C114  1  0.05707807  0.50224714  0.49898667  1
  C  C115  1  0.16426070  0.75091401  0.03902273  1
  C  C116  1  0.21611552  0.98959194  0.04956607  1
  H  H117  1  0.03744313  0.84678613  0.16567621  1
  C  C118  1  0.15761589  0.77252622  0.44621480  1
  C  C119  1  0.18182863  0.83186377  0.06922094  1
  H  H120  1  0.19447159  0.76764567  0.40821535  1
  C  C121  1  0.17377356  0.96345610  0.24766863  1
  H  H122  1  0.16506084  0.89379371  0.27860779  1
  H  H123  1  0.09673581  0.79456120  0.04777980  1
  H  H124  1  0.15645396  0.97004147  0.34190052  1
  C  C125  1  0.19995788  0.79011249  0.03775383  1
  O  O126  1  0.13883687  0.84556036  0.12091209  1
  C  C127  1  0.21633747  0.86566565  0.05355343  1
  H  H128  1  0.12641170  0.78724273  0.19971974  1
  C  C129  1  0.05524351  0.81766606  0.21476510  1
  H  H130  1  0.03038271  0.78869580  0.20744110  1
  C  C131  1  0.20293107  0.91203607  0.09149002  1
  C  C132  1  0.10419614  0.81053667  0.14169872  1
  C  C133  1  0.17811360  0.91992707  0.21070831  1
  C  C134  1  0.17180854  0.85661242  0.47529892  1
  O  O135  1  0.21451263  0.85594155  0.41927628  1
  H  H136  1  0.06486834  0.82373009  0.31872293  1
  C  C137  1  0.21911030  0.94640537  0.00914916  1
  C  C138  1  0.19109269  0.99842058  0.16630232  1
  C  C139  1  0.14483341  0.81487584  0.48589060  1
  C  C140  1  0.17686320  0.57240105  0.67421636  1
  H  H141  1  0.06729310  0.71446976  0.85691326  1
  O  O142  1  0.14305790  0.59967466  0.67585390  1
  C  C143  1  0.08398798  0.58888471  0.67953316  1
  H  H144  1  0.07969862  0.55296026  0.69370987  1
  C  C145  1  0.09569399  0.72085417  0.93151542  1
  C  C146  1  0.05095471  0.60873275  0.78830243  1
  C  C147  1  0.17780912  0.52502254  0.65694394  1
  H  H148  1  0.18084006  0.64637625  0.81795999  1
  C  C149  1  0.20872006  0.70689446  0.72545201  1
  H  H150  1  0.02417199  0.58262246  0.81563937  1
  H  H151  1  0.18742570  0.72590845  0.78937436  1
  H  H152  1  0.03196109  0.63966670  0.75147663  1
  H  H153  1  0.07276682  0.62004402  0.87598658  1
  C  C154  1  0.20708361  0.66233528  0.74825241  1
  H  H155  1  0.07036477  0.59710097  0.57731489  1
  C  C156  1  0.22820224  0.58429482  0.67967048  1
  O  O157  1  0.01322237  0.66773477  0.95988891  1
  C  C158  1  0.13025910  0.50231733  0.61957540  1
  C  C159  1  0.10411848  0.51992737  0.51774420  1
  C  C160  1  0.05112424  0.66574841  0.51797790  1
  H  H161  1  0.08713798  0.65513970  0.56101203  1
  C  C162  1  0.23688266  0.63308314  0.67592672  1
  C  C163  1  0.13657740  0.74837336  0.92136010  1
  H  H164  1  0.17781915  0.65967033  0.97831891  1
  C  C165  1  0.07724934  0.74402846  0.50453308  1
  C  C166  1  0.24155580  0.72310603  0.63324875  1
  C  C167  1  0.24874467  0.77030601  0.62566996  1
  C  C168  1  0.24541230  0.78435301  0.98044817  1
  H  H169  1  0.03424625  0.77587039  0.80452400  1
  C  C170  1  0.03140559  0.86213391  0.87278340  1
  H  H171  1  0.02778873  0.79379537  0.59355727  1
  H  H172  1  0.14558492  0.76860990  0.83421723  1
  H  H173  1  0.09757608  0.85965049  0.92995196  1
  H  H174  1  0.23696729  0.93852187  0.91316611  1
  O  O175  1  0.08245871  0.84176312  0.86232350  1
  O  O176  1  0.02950460  0.89806844  0.91484190  1
  O  O177  1  0.23061165  0.79520880  0.71235870  1
  C  C178  1  0.06566017  0.78646828  0.56030427  1
  H  H179  1  0.08443602  0.85370200  0.58000859  1
  C  C180  1  0.09795928  0.82004648  0.54935056  1
  O  O181  1  0.15419754  0.88987100  0.51529674  1
  C  C182  1  0.29021985  0.19412935  0.14561076  1
  O  O183  1  0.29626717  0.19795369  0.26532163  1
  H  H184  1  0.46471179  0.17665384  0.39818216  1
  C  C185  1  0.46256746  0.03851281  0.25747022  1
  O  O186  1  0.46646199  0.07576489  0.27426201  1
  O  O187  1  0.29338118  0.06997306  0.27867797  1
  C  C188  1  0.48269049  0.23476838  0.26920058  1
  H  H189  1  0.41916526  0.20291211  0.42596741  1
  H  H190  1  0.40545811  0.07137433  0.44481987  1
  C  C191  1  0.40925945  0.23581050  0.38702871  1
  C  C192  1  0.29006807  0.05544823  0.39256507  1
  C  C193  1  0.32315640  0.21777545  0.05994640  1
  H  H194  1  0.42810584  0.15206857  0.17427677  1
  C  C195  1  0.33563236  0.04505485  0.45702476  1
  C  C196  1  0.36151130  0.24472115  0.10895883  1
  C  C197  1  0.37979355  0.04655151  0.47210811  1
  H  H198  1  0.48738796  0.13822352  0.11339727  1
  C  C199  1  0.48940961  0.19280019  0.32556241  1
  C  C200  1  0.44924707  0.14445270  0.08308870  1
  H  H201  1  0.43675634  0.11289087  0.03296618  1
  H  H202  1  0.45403660  0.21260130  0.03553379  1
  Cu  Cu203  1  0.25759205  0.11307081  0.17696708  1
  O  O204  1  0.25697669  0.16926783  0.10000688  1
  O  O205  1  0.25087588  0.05943879  0.45482098  1
  H  H206  1  0.36229586  0.25175126  0.21874856  1
  C  C207  1  0.36482469  0.25340537  0.42671118  1
  C  C208  1  0.30950162  0.43854692  0.31802477  1
  C  C209  1  0.44059235  0.26031135  0.30911296  1
  C  C210  1  0.49254115  0.39868093  0.05473903  1
  C  C211  1  0.33182109  0.42410818  0.43515713  1
  C  C212  1  0.39472528  0.26002277  0.02256843  1
  C  C213  1  0.43177495  0.30550701  0.26171254  1
  C  C214  1  0.26665558  0.30699186  0.06228601  1
  C  C215  1  0.36465355  0.36496822  0.30402215  1
  H  H216  1  0.42639175  0.27734698  0.05610941  1
  O  O217  1  0.46352562  0.32496372  0.19190714  1
  C  C218  1  0.45128219  0.37448433  0.12963684  1
  C  C219  1  0.33788069  0.37890707  0.19421548  1
  H  H220  1  0.41953445  0.36999222  0.06901573  1
  H  H221  1  0.32128609  0.31292268  0.44011836  1
  C  C222  1  0.35893611  0.38593753  0.42920250  1
  H  H223  1  0.33781686  0.36036356  0.10548186  1
  C  C224  1  0.28374431  0.48091211  0.32309220  1
  H  H225  1  0.28073177  0.27469061  0.08792769  1
  C  C226  1  0.46440652  0.45450532  0.33057501  1
  H  H227  1  0.48492402  0.43641969  0.05025714  1
  H  H228  1  0.29163055  0.43210926  0.10686792  1
  C  C229  1  0.35387240  0.29701719  0.39640850  1
  C  C230  1  0.31054154  0.41820203  0.19356940  1
  H  H231  1  0.43932868  0.38872231  0.22495690  1
  C  C232  1  0.38757358  0.31882507  0.31850097  1
  H  H233  1  0.43724134  0.43811745  0.39266330  1
  O  O234  1  0.25892464  0.49749724  0.23006255  1
  O  O235  1  0.25461378  0.28121137  0.31435620  1
  C  C236  1  0.45431000  0.49657845  0.27276333  1
  H  H237  1  0.34098628  0.22781845  0.73019785  1
  C  C238  1  0.34443731  0.22964757  0.83835316  1
  C  C239  1  0.45795425  0.21618051  0.77198199  1
  O  O240  1  0.46055859  0.17859736  0.85792660  1
  H  H241  1  0.28061851  0.19175166  0.90004211  1
  C  C242  1  0.31231897  0.16028065  0.63859579  1
  C  C243  1  0.34411815  0.12130970  0.66967434  1
  C  C244  1  0.38156664  0.11239579  0.72525645  1
  C  C245  1  0.31182106  0.21174839  0.92750705  1
  C  C246  1  0.34995862  0.07090895  0.70622144  1
  H  H247  1  0.33306349  0.06044470  0.79870379  1
  C  C248  1  0.35339173  0.03526155  0.59913069  1
  C  C249  1  0.26434672  0.17279581  0.68106356  1
  H  H250  1  0.39984051  0.13132015  0.80924699  1
  H  H251  1  0.46090448  0.13029333  0.69021823  1
  C  C252  1  0.48811018  0.21578746  0.66486777  1
  C  C253  1  0.34345322  0.18695593  0.56162245  1
  C  C254  1  0.44149432  0.18264812  0.98418360  1
  H  H255  1  0.40101480  0.18495671  0.96990898  1
  H  H256  1  0.37824411  0.17177448  0.53540217  1
  C  C257  1  0.25426369  0.21700435  0.64253890  1
  C  C258  1  0.33068975  0.22943753  0.51808054  1
  H  H259  1  0.35396272  0.00112825  0.63436755  1
  C  C260  1  0.28496711  0.24210536  0.56845160  1
  C  C261  1  0.49701919  0.13307169  0.64561242  1
  C  C262  1  0.38633983  0.25263565  0.88809268  1
  C  C263  1  0.42599882  0.25118886  0.78801117  1
  C  C264  1  0.49116043  0.25258079  0.57069983  1
  H  H265  1  0.37592229  0.37391079  0.52115116  1
  H  H266  1  0.42529175  0.49018136  0.60603943  1
  H  H267  1  0.37109557  0.49416750  0.66534204  1
  C  C268  1  0.28017765  0.32869065  0.94898533  1
  C  C269  1  0.42552972  0.28872307  0.69802805  1
  H  H270  1  0.49692040  0.38393342  0.95752853  1
  C  C271  1  0.26413610  0.37267251  0.92511767  1
  H  H272  1  0.27482269  0.27650036  0.55360201  1
  C  C273  1  0.45855127  0.28331489  0.60004416  1
  C  C274  1  0.45207448  0.39029134  0.76508622  1
  C  C275  1  0.44576876  0.45946130  0.63754538  1
  H  H276  1  0.31008760  0.31287651  0.89393209  1
  C  C277  1  0.35042503  0.46821486  0.71188779  1
  C  C278  1  0.42237335  0.42666758  0.72044891  1
  C  C279  1  0.29974712  0.47502190  0.72771420  1
  C  C280  1  0.29352034  0.40125647  0.83795549  1
  O  O281  1  0.36666086  0.35711219  0.83158650  1
  H  H282  1  0.40010339  0.31755809  0.70803644  1
  C  C283  1  0.37088459  0.42755240  0.74723468  1
  H  H284  1  0.43472925  0.36508198  0.82746849  1
  C  C285  1  0.27483223  0.44025991  0.79538049  1
  C  C286  1  0.34454252  0.39048337  0.80673614  1
  C  C287  1  0.49828782  0.38468120  0.72414719  1
  C  C288  1  0.49328107  0.45687694  0.59354237  1
  H  H289  1  0.32434476  0.44178574  0.52839065  1
  H  H290  1  0.31697998  0.65001519  0.30563995  1
  C  C291  1  0.28846258  0.65122670  0.23178469  1
  O  O292  1  0.41187233  0.56033253  0.26439481  1
  C  C293  1  0.35772490  0.72477145  0.08253548  1
  C  C294  1  0.29429129  0.67035094  0.10084864  1
  Cu  Cu295  1  0.45595719  0.60453947  0.30599777  1
  C  C296  1  0.34627360  0.68060555  0.06043578  1
  C  C297  1  0.41262145  0.52099428  0.31326885  1
  H  H298  1  0.30388281  0.60153560  0.07415000  1
  O  O299  1  0.45760253  0.70621278  0.32287072  1
  C  C300  1  0.40840496  0.73578414  0.08360582  1
  O  O301  1  0.38407857  0.50907470  0.40373547  1
  H  H302  1  0.47222047  0.54152250  0.11378158  1
  C  C303  1  0.48463414  0.51344820  0.17172332  1
  H  H304  1  0.32848295  0.74963916  0.09724211  1
  H  H305  1  0.29280155  0.70731403  0.47552205  1
  Cu  Cu306  1  0.33249235  0.53929612  0.49575023  1
  H  H307  1  0.30649458  0.52396458  0.03950986  1
  O  O308  1  0.44483181  0.59197377  0.49156186  1
  O  O309  1  0.28370373  0.50112215  0.42858437  1
  C  C310  1  0.49579202  0.68970799  0.34411497  1
  C  C311  1  0.25445395  0.67386812  0.01520453  1
  C  C312  1  0.37718819  0.64676789  0.00853254  1
  C  C313  1  0.42610816  0.66228454  0.01044659  1
  C  C314  1  0.44267362  0.70368011  0.04309215  1
  H  H315  1  0.48156738  0.71278397  0.04366624  1
  H  H316  1  0.44427303  0.96831537  0.30235335  1
  H  H317  1  0.49343054  0.77614279  0.36880035  1
  C  C318  1  0.33809601  0.92672571  0.45103469  1
  C  C319  1  0.46786592  0.79545637  0.10292259  1
  C  C320  1  0.42198378  0.77921121  0.14643530  1
  C  C321  1  0.36933876  0.90484678  0.36793196  1
  C  C322  1  0.26289526  0.86293251  0.00195966  1
  H  H323  1  0.32323416  0.96027970  0.43803199  1
  C  C324  1  0.45790779  0.97554182  0.09861181  1
  H  H325  1  0.43778858  0.88930400  0.04249430  1
  C  C326  1  0.39326826  0.80184808  0.23773188  1
  H  H327  1  0.38159771  0.92019207  0.28085264  1
  C  C328  1  0.46086238  0.85783933  0.25513885  1
  C  C329  1  0.41578017  0.83916165  0.28812276  1
  C  C330  1  0.45602353  0.99147574  0.22849861  1
  H  H331  1  0.35806910  0.79104949  0.26807686  1
  O  O332  1  0.47689165  0.89458502  0.31590326  1
  C  C333  1  0.48510605  0.83439956  0.15197925  1
  C  C334  1  0.38581907  0.86216137  0.39884803  1
  Cu  Cu335  1  0.27176274  0.84545174  0.49455356  1
  H  H336  1  0.48726134  0.77872887  0.02134447  1
  H  H337  1  0.30600136  0.57021337  0.70721196  1
  C  C338  1  0.35652990  0.69756144  0.74637595  1
  C  C339  1  0.40830142  0.64586480  0.61850681  1
  C  C340  1  0.44627196  0.67754162  0.60804193  1
  C  C341  1  0.36554737  0.65699534  0.68989311  1
  H  H342  1  0.33746761  0.63290443  0.70204276  1
  H  H343  1  0.32207690  0.70233877  0.80143937  1
  C  C344  1  0.26947843  0.55726701  0.69403100  1
  C  C345  1  0.43677195  0.71947803  0.65579321  1
  C  C346  1  0.41001101  0.60195227  0.56415379  1
  C  C347  1  0.39415537  0.73028573  0.73154080  1
  C  C348  1  0.26427205  0.64969560  0.56857947  1
  C  C349  1  0.45509777  0.60233916  0.86990174  1
  H  H350  1  0.42290961  0.61007870  0.81088780  1
  O  O351  1  0.37496997  0.57586649  0.59837718  1
  C  C352  1  0.26833144  0.69359237  0.55437116  1
  H  H353  1  0.26158096  0.68835065  0.92041805  1
  C  C354  1  0.26457771  0.51091757  0.68890277  1
  C  C355  1  0.46723350  0.63118836  0.97604302  1
  H  H356  1  0.47575771  0.54470673  0.75574824  1
  H  H357  1  0.32345488  0.52977783  0.87383490  1
  H  H358  1  0.29538853  0.61662517  0.90549845  1
  H  H359  1  0.46565323  0.74310579  0.63419287  1
  H  H360  1  0.48128708  0.66914045  0.55580857  1
  C  C361  1  0.48643283  0.56811913  0.83740012  1
  H  H362  1  0.26142641  0.54170134  0.91925745  1
  C  C363  1  0.29931211  0.54444274  0.94903799  1
  H  H364  1  0.28762277  0.62747189  0.50558972  1
  C  C365  1  0.31253815  0.59243927  0.97264513  1
  O  O366  1  0.36579329  0.60774620  0.97026058  1
  C  C367  1  0.32864025  0.90497761  0.56816267  1
  H  H368  1  0.31408379  0.75277598  0.83426616  1
  O  O369  1  0.43297379  0.96537796  0.71229813  1
  O  O370  1  0.27693186  0.78623823  0.54096999  1
  H  H371  1  0.47147377  0.97425362  0.89056129  1
  C  C372  1  0.40171948  0.85133479  0.82949873  1
  C  C373  1  0.35891473  0.85460423  0.89724113  1
  C  C374  1  0.34134362  0.77819967  0.83960088  1
  H  H375  1  0.25671448  0.75085321  0.95325273  1
  H  H376  1  0.40087331  0.91925703  0.63745464  1
  H  H377  1  0.33814033  0.84759194  0.70220613  1
  C  C378  1  0.42081747  0.92818981  0.73445668  1
  O  O379  1  0.45986676  0.80871198  0.70169002  1
  C  C380  1  0.38671983  0.77613484  0.77037417  1
  C  C381  1  0.29188328  0.92885564  0.65231502  1
  O  O382  1  0.27528037  0.90902703  0.75240012  1
  C  C383  1  0.41935127  0.81292289  0.76223963  1
  C  C384  1  0.32744586  0.81677061  0.90239768  1
  C  C385  1  0.34716652  0.86344780  0.60716251  1
  C  C386  1  0.27654657  0.82088542  0.95704191  1
  Cu  Cu387  1  0.25311027  0.85186559  0.72590969  1
  H  H388  1  0.38864541  0.80896387  0.53924344  1
  C  C389  1  0.44049841  0.91091683  0.96279558  1
  H  H390  1  0.46081678  0.87304510  0.69196824  1
  O  O391  1  0.27467401  0.96311218  0.61505090  1
  C  C392  1  0.42337363  0.89727129  0.84491874  1
  C  C393  1  0.49420639  0.85219778  0.69157483  1
  H  H394  1  0.34660724  0.88512623  0.94177933  1
  C  C395  1  0.37538611  0.84045807  0.51737386  1
  C  C396  1  0.46005855  0.95511707  0.98044567  1
  H  H397  1  0.28444441  0.89200456  0.99147325  1
  Cu  Cu398  1  0.64189498  0.06860625  0.20935993  1
  Cu  Cu399  1  0.68933241  0.12722167  0.09855419  1
  C  C400  1  0.60041703  0.15357127  0.15075761  1
  O  O401  1  0.68974931  0.02708428  0.19727042  1
  C  C402  1  0.56168068  0.18286579  0.18923749  1
  O  O403  1  0.63441805  0.07054981  0.39527092  1
  C  C404  1  0.73299004  0.04478612  0.20073737  1
  O  O405  1  0.59658126  0.11356112  0.19131490  1
  C  C406  1  0.55621518  0.22622662  0.13582721  1
  H  H407  1  0.53336710  0.13637494  0.33253676  1
  C  C408  1  0.52870618  0.16790060  0.28451255  1
  O  O409  1  0.63401319  0.16097906  0.07086025  1
  O  O410  1  0.74156451  0.09161708  0.12027249  1
  C  C411  1  0.59511805  0.06397226  0.46680396  1
  H  H412  1  0.62228219  0.15152557  0.45984183  1
  O  O413  1  0.58002685  0.02724117  0.48389416  1
  H  H414  1  0.70259431  0.05104281  0.48102026  1
  H  H415  1  0.58408799  0.23864603  0.07018032  1
  C  C416  1  0.51979356  0.25170758  0.17827495  1
  C  C417  1  0.52823194  0.49378902  0.14495175  1
  H  H418  1  0.51372799  0.25127977  0.48621334  1
  C  C419  1  0.74235231  0.27044308  0.22320530  1
  H  H420  1  0.66701298  0.32559704  0.01450542  1
  C  C421  1  0.69702137  0.42431786  0.15652305  1
  H  H422  1  0.61665619  0.30357421  0.20766419  1
  H  H423  1  0.51874533  0.28651708  0.14538418  1
  H  H424  1  0.70921070  0.25187748  0.03260743  1
  C  C425  1  0.66463162  0.39154962  0.19611961  1
  C  C426  1  0.60398152  0.32173153  0.29575832  1
  H  H427  1  0.73542537  0.41958496  0.14836742  1
  H  H428  1  0.73740019  0.36949969  0.38150912  1
  C  C429  1  0.54476562  0.45462246  0.21201925  1
  H  H430  1  0.52956613  0.39518517  0.10472197  1
  H  H431  1  0.57862994  0.29004666  0.48467716  1
  C  C432  1  0.61437847  0.39657493  0.22142849  1
  C  C433  1  0.57687428  0.28684640  0.37573802  1
  O  O434  1  0.58456684  0.36679191  0.26655411  1
  C  C435  1  0.71421847  0.27657768  0.11056461  1
  C  C436  1  0.74936456  0.30344283  0.31626653  1
  C  C437  1  0.62709418  0.47413039  0.15427609  1
  C  C438  1  0.72571736  0.34359451  0.31178981  1
  H  H439  1  0.63595244  0.33695275  0.35502658  1
  C  C440  1  0.69136523  0.31731255  0.10119367  1
  H  H441  1  0.51848653  0.40288455  0.33688680  1
  C  C442  1  0.67807646  0.46754719  0.13940414  1
  H  H443  1  0.53734795  0.28756563  0.34655907  1
  C  C444  1  0.59652599  0.44086726  0.19636479  1
  C  C445  1  0.50797824  0.43438486  0.29296283  1
  H  H446  1  0.58986288  0.25276472  0.35464387  1
  C  C447  1  0.69223585  0.34803261  0.20320479  1
  C  C448  1  0.73639141  0.05728490  0.67609220  1
  C  C449  1  0.69783468  0.04013791  0.58059757  1
  O  O450  1  0.74067477  0.10795094  0.72749164  1
  C  C451  1  0.69936565  0.18191597  0.81553166  1
  H  H452  1  0.68920504  0.14782267  0.82924718  1
  H  H453  1  0.62596086  0.20926794  0.78072080  1
  C  C454  1  0.66578527  0.21525064  0.78838834  1
  C  C455  1  0.52372876  0.09719214  0.59728445  1
  H  H456  1  0.73412490  0.03906255  0.77023025  1
  C  C457  1  0.56292746  0.18093363  0.55547343  1
  C  C458  1  0.51837363  0.17593177  0.62701865  1
  H  H459  1  0.57713866  0.21468231  0.53515458  1
  H  H460  1  0.65858253  0.04665512  0.60972154  1
  C  C461  1  0.56990313  0.10282563  0.53255077  1
  H  H462  1  0.50930400  0.06396136  0.60146012  1
  C  C463  1  0.74963258  0.19482833  0.83233301  1
  H  H464  1  0.70238450  0.00514079  0.57242392  1
  C  C465  1  0.58890791  0.14536544  0.50995805  1
  O  O466  1  0.69077100  0.43644166  0.58196395  1
  H  H467  1  0.73944320  0.40792739  0.93029874  1
  C  C468  1  0.51679204  0.41678225  0.63818180  1
  H  H469  1  0.74034188  0.30564842  0.74907849  1
  Cu  Cu470  1  0.65253070  0.48727275  0.83682074  1
  O  O471  1  0.59969242  0.27918792  0.69639133  1
  H  H472  1  0.50798996  0.47798118  0.51600082  1
  C  C473  1  0.64340459  0.28479314  0.69944397  1
  C  C474  1  0.68207672  0.25769312  0.76565040  1
  C  C475  1  0.56681099  0.40754364  0.60297041  1
  O  O476  1  0.66294466  0.32404543  0.65468053  1
  O  O477  1  0.58626165  0.37255705  0.64198084  1
  H  H478  1  0.62574203  0.33781412  0.62366432  1
  H  H479  1  0.51990326  0.35396590  0.74442117  1
  O  O480  1  0.68257031  0.43654894  0.79582650  1
  C  C481  1  0.70832961  0.42913149  0.69291300  1
  Cu  Cu482  1  0.63930296  0.47812684  0.57416425  1
  C  C483  1  0.73153076  0.27065456  0.77541214  1
  O  O484  1  0.58736474  0.43685035  0.52975725  1
  C  C485  1  0.58392957  0.69778869  0.39762512  1
  C  C486  1  0.64936380  0.64896602  0.13900175  1
  C  C487  1  0.68339051  0.54776380  0.10147932  1
  H  H488  1  0.60453016  0.70619602  0.16827240  1
  C  C489  1  0.62048659  0.68267859  0.09704888  1
  C  C490  1  0.53980605  0.71826257  0.36873487  1
  H  H491  1  0.65287809  0.64297381  0.24286110  1
  H  H492  1  0.58787835  0.66140821  0.39992344  1
  C  C493  1  0.71131594  0.58552526  0.07385350  1
  H  H494  1  0.64234493  0.55014501  0.10815476  1
  C  C495  1  0.71023699  0.50841758  0.12113401  1
  C  C496  1  0.67282802  0.62071827  0.04490817  1
  H  H497  1  0.61164244  0.50744533  0.12628246  1
  H  H498  1  0.52717429  0.65647097  0.11058786  1
  C  C499  1  0.62285102  0.72402725  0.43247021  1
  H  H500  1  0.55005333  0.50702158  0.05909137  1
  H  H501  1  0.73694584  0.57480221  0.45026065  1
  H  H502  1  0.73243650  0.67172257  0.12741370  1
  H  H503  1  0.65755227  0.70687174  0.46732435  1
  H  H504  1  0.58437363  0.59728335  0.02516043  1
  C  C505  1  0.51382732  0.62997300  0.03901276  1
  O  O506  1  0.50299829  0.64673594  0.34181555  1
  H  H507  1  0.70328930  0.74126137  0.49802448  1
  H  H508  1  0.55509786  0.88863923  0.29189316  1
  C  C509  1  0.54031673  0.95548365  0.36652921  1
  C  C510  1  0.71057607  0.86608786  0.42998865  1
  H  H511  1  0.51532283  0.91925298  0.18248951  1
  C  C512  1  0.65085416  0.91250348  0.37393055  1
  C  C513  1  0.66375343  0.79991688  0.44933641  1
  C  C514  1  0.69039469  0.87860461  0.02966068  1
  H  H515  1  0.62788990  0.94047849  0.33106714  1
  C  C516  1  0.63598473  0.86933932  0.04356783  1
  H  H517  1  0.53684509  0.94999224  0.47349482  1
  C  C518  1  0.73007361  0.94926206  0.33799240  1
  C  C519  1  0.70168293  0.91321557  0.38531732  1
  C  C520  1  0.52533958  0.91432609  0.28777178  1
  C  C521  1  0.57516672  0.82322800  0.14799807  1
  C  C522  1  0.53167145  0.76381500  0.38378855  1
  C  C523  1  0.62378237  0.83349892  0.12144574  1
  H  H524  1  0.51523291  0.98476649  0.34399389  1
  C  C525  1  0.57258055  0.78954260  0.40810479  1
  H  H526  1  0.56897398  0.82552949  0.40319754  1
  H  H527  1  0.57859755  0.96636568  0.34797270  1
  C  C528  1  0.53602715  0.84685389  0.09698354  1
  C  C529  1  0.61983921  0.77086842  0.42699048  1
  C  C530  1  0.66567173  0.84510931  0.42930251  1
  H  H531  1  0.65220384  0.81592499  0.17615452  1
  O  O532  1  0.62660564  0.87872488  0.40056355  1
  O  O533  1  0.72121489  0.85019396  0.07728546  1
  H  H534  1  0.56803934  0.79381018  0.20819852  1
  H  H535  1  0.70999203  0.97695125  0.29547036  1
  C  C536  1  0.70826731  0.77644045  0.47696365  1
  H  H537  1  0.50785930  0.85297319  0.48198472  1
  C  C538  1  0.54963620  0.88192191  0.01415461  1
  H  H539  1  0.62224879  0.65817099  0.76711568  1
  O  O540  1  0.69783495  0.53384507  0.79360392  1
  C  C541  1  0.53197155  0.56789519  0.89972701  1
  C  C542  1  0.56766736  0.53516593  0.84904592  1
  O  O543  1  0.61079071  0.53061091  0.89701560  1
  C  C544  1  0.63056041  0.65779500  0.86898384  1
  H  H545  1  0.67831245  0.60058168  0.83624897  1
  C  C546  1  0.70851019  0.54206191  0.67880608  1
  C  C547  1  0.66157866  0.62405353  0.90725392  1
  C  C548  1  0.58532980  0.72727407  0.91863137  1
  O  O549  1  0.58474605  0.73281370  0.77360494  1
  O  O550  1  0.68494002  0.52454666  0.58480854  1
  O  O551  1  0.55173543  0.51062151  0.76745946  1
  C  C552  1  0.54594217  0.59828164  0.99664822  1
  C  C553  1  0.61060296  0.68810052  0.96298724  1
  H  H554  1  0.74987509  0.58851394  0.87079840  1
  H  H555  1  0.72636484  0.73527749  0.77787432  1
  H  H556  1  0.72781175  0.66986773  0.95561366  1
  C  C557  1  0.74315551  0.57810844  0.66447336  1
  O  O558  1  0.56596022  0.75402986  0.98596912  1
  C  C559  1  0.57994594  0.77720435  0.73580934  1
  H  H560  1  0.50982742  0.85695237  0.78940264  1
  H  H561  1  0.72387954  0.83411094  0.84618049  1
  C  C562  1  0.72014286  0.76679450  0.82720530  1
  H  H563  1  0.69033318  0.76662736  0.90471256  1
  H  H564  1  0.60688698  0.92205593  0.93212339  1
  H  H565  1  0.60816684  0.84436904  0.72326234  1
  H  H566  1  0.65532102  0.80390966  0.76267401  1
  O  O567  1  0.70464390  0.90898684  0.96425340  1
  H  H568  1  0.51896432  0.90138001  0.97675014  1
  C  C569  1  0.59782641  0.89391028  0.99157922  1
  H  H570  1  0.58179839  0.77326450  0.62962296  1
  H  H571  1  0.56303608  0.84471264  0.57936271  1
  C  C572  1  0.52798196  0.86346138  0.57689675  1
  C  C573  1  0.74200079  0.80460107  0.80129561  1
  C  C574  1  0.61602963  0.81422737  0.78015109  1
  H  H575  1  0.61059643  0.81962575  0.88251219  1
  H  H576  1  0.54233235  0.78850937  0.76499827  1
  H  H577  1  0.53765640  0.89929624  0.56862570  1
  C  C578  1  0.96674750  0.10985355  0.19469115  1
  C  C579  1  0.92735513  0.10258955  0.11065953  1
  C  C580  1  0.92091874  0.18376064  0.07227146  1
  C  C581  1  0.96154224  0.19086730  0.15963124  1
  C  C582  1  0.99170438  0.07915007  0.27204826  1
  C  C583  1  0.98356733  0.15362940  0.22029583  1
  O  O584  1  0.82018287  0.11637299  0.26504924  1
  H  H585  1  0.89712256  0.15519282  0.30596670  1
  H  H586  1  0.91384485  0.06903640  0.09319265  1
  C  C587  1  0.90518042  0.14074825  0.05615844  1
  C  C588  1  0.97363158  0.23663461  0.20345913  1
  C  C589  1  0.98144486  0.03461073  0.30229321  1
  C  C590  1  0.82129199  0.10691541  0.39085171  1
  H  H591  1  0.93290730  0.02105829  0.14933022  1
  C  C592  1  0.89739050  0.15169423  0.40814321  1
  H  H593  1  0.90491396  0.21246843  0.01735171  1
  Cu  Cu594  1  0.77448009  0.14047179  0.16845862  1
  O  O595  1  0.78830871  0.08859967  0.44329671  1
  C  C596  1  0.76545124  0.02534266  0.24985246  1
  H  H597  1  0.83771801  0.00979487  0.30556500  1
  H  H598  1  0.99089341  0.01690856  0.02964267  1
  O  O599  1  0.79378623  0.22276787  0.33638557  1
  H  H600  1  0.96467561  0.19127017  0.43851906  1
  C  C601  1  0.77098227  0.22915771  0.24200660  1
  C  C602  1  0.94821038  0.00958594  0.24139073  1
  C  C603  1  0.93342913  0.17247043  0.48145059  1
  C  C604  1  0.85995598  0.12961796  0.46800519  1
  O  O605  1  0.76445523  0.19790881  0.15184329  1
  Cu  Cu606  1  0.98607927  0.43943675  0.27779382  1
  C  C607  1  0.91238204  0.49914915  0.12195031  1
  H  H608  1  0.77307990  0.29753264  0.39906021  1
  O  O609  1  0.96210417  0.38591625  0.34029405  1
  H  H610  1  0.84453376  0.47786084  0.06061111  1
  H  H611  1  0.91160523  0.26415307  0.09521618  1
  H  H612  1  0.78087085  0.48053924  0.14044960  1
  H  H613  1  0.91616209  0.33706378  0.21000022  1
  O  O614  1  0.97119050  0.46322212  0.44478922  1
  C  C615  1  0.94270928  0.30862965  0.23211577  1
  C  C616  1  0.93909780  0.26970395  0.16966016  1
  H  H617  1  0.92944593  0.46768966  0.09489998  1
  C  C618  1  0.98130953  0.31135854  0.32167228  1
  C  C619  1  0.98644866  0.35423823  0.38940502  1
  C  C620  1  0.85501580  0.12668155  0.60282491  1
  C  C621  1  0.89076095  0.14953424  0.67302581  1
  C  C622  1  0.96530176  0.19320272  0.72037743  1
  C  C623  1  0.93390921  0.16870608  0.61920027  1
  H  H624  1  0.88744409  0.15162507  0.77633187  1
  H  H625  1  0.82285325  0.10978778  0.64152437  1
  H  H626  1  0.97138465  0.10003768  0.75051489  1
  C  C627  1  0.84800545  0.02762948  0.69984882  1
  C  C628  1  0.81198823  0.08625389  0.84569536  1
  C  C629  1  0.81616239  0.03720902  0.80394155  1
  H  H630  1  0.87315198  0.05220881  0.65671195  1
  C  C631  1  0.78682478  0.15944201  0.86102498  1
  C  C632  1  0.85052040  0.09177011  0.92546831  1
  C  C633  1  0.77571904  0.11780278  0.80466629  1
  C  C634  1  0.76420056  0.23908241  0.81265201  1
  H  H635  1  0.80125550  0.24726746  0.82859861  1
  C  C636  1  0.78519358  0.00707761  0.87857747  1
  C  C637  1  0.94855558  0.23600143  0.74030856  1
  H  H638  1  0.77378254  0.05749674  0.63633495  1
  H  H639  1  0.96044448  0.06056377  0.91402543  1
  H  H640  1  0.87591073  0.06398112  0.94889523  1
  H  H641  1  0.92168522  0.24791533  0.67177200  1
  H  H642  1  0.83186256  0.20265179  0.97987213  1
  C  C643  1  0.86138548  0.13570579  0.96545030  1
  C  C644  1  0.82742002  0.16960612  0.93974313  1
  H  H645  1  0.89375053  0.00780610  0.86824805  1
  H  H646  1  0.76387973  0.01662339  0.96553308  1
  C  C647  1  0.96148996  0.02655442  0.95583594  1
  C  C648  1  0.99415366  0.44930590  0.54258330  1
  H  H649  1  0.87436723  0.31392188  0.77436894  1
  C  C650  1  0.76591113  0.40234631  0.85251452  1
  C  C651  1  0.95017338  0.31201315  0.85137057  1
  C  C652  1  0.98312320  0.33852930  0.92184157  1
  C  C653  1  0.84986384  0.38701438  0.78529135  1
  C  C654  1  0.83989632  0.39922289  0.65475161  1
  H  H655  1  0.77829144  0.41138644  0.53137764  1
  O  O656  1  0.97872354  0.41974524  0.62267279  1
  C  C657  1  0.97606420  0.38416281  0.92935409  1
  C  C658  1  0.88446982  0.47652933  0.82775161  1
  H  H659  1  0.85170393  0.45635149  0.85689030  1
  H  H660  1  0.86960412  0.40210869  0.58179989  1
  C  C661  1  0.81402172  0.38867877  0.88290138  1
  C  C662  1  0.87694519  0.49495974  0.69047618  1
  C  C663  1  0.90669722  0.33285377  0.81184833  1
  C  C664  1  0.90257283  0.37738927  0.83155541  1
  C  C665  1  0.93577119  0.40940335  0.87889917  1
  H  H666  1  0.86939002  0.46812384  0.61469356  1
  C  C667  1  0.96803689  0.26619053  0.83036697  1
  C  C668  1  0.79147320  0.40663704  0.62656180  1
  C  C669  1  0.75552674  0.41264874  0.72457969  1
  O  O670  1  0.92868511  0.45115978  0.89222098  1
  H  H671  1  0.82375733  0.38382653  0.98515393  1
  C  C672  1  0.78652390  0.55121145  0.11146548  1
  C  C673  1  0.83982988  0.54771424  0.11829582  1
  C  C674  1  0.91847801  0.57782560  0.17818734  1
  C  C675  1  0.93919843  0.53526981  0.17541106  1
  H  H676  1  0.94837892  0.61672874  0.39131495  1
  C  C677  1  0.96382040  0.69129040  0.38394025  1
  H  H678  1  0.85367517  0.61727096  0.17960081  1
  H  H679  1  0.94093013  0.60534588  0.19881052  1
  C  C680  1  0.86980648  0.58507555  0.15232631  1
  C  C681  1  0.76175429  0.59232186  0.08319806  1
  C  C682  1  0.91863954  0.70040130  0.30302716  1
  O  O683  1  0.78364116  0.63014035  0.06618665  1
  H  H684  1  0.96475872  0.69838622  0.13008085  1
  C  C685  1  0.93066624  0.71252581  0.16942587  1
  C  C686  1  0.98819777  0.53128954  0.22721126  1
  C  C687  1  0.87229461  0.71115919  0.35653511  1
  C  C688  1  0.97287905  0.64389217  0.41214416  1
  H  H689  1  0.78444269  0.64891329  0.43924575  1
  H  H690  1  0.86454906  0.70267307  0.45458466  1
  C  C691  1  0.86335823  0.50636144  0.09914484  1
  C  C692  1  0.76040754  0.51209671  0.12922744  1
  C  C693  1  0.84678911  0.74316323  0.29033050  1
  C  C694  1  0.75250451  0.67189531  0.03533226  1
  C  C695  1  0.99511110  0.72564803  0.41918411  1
  C  C696  1  0.89945326  0.73858257  0.09694917  1
  H  H697  1  0.81105188  0.71710415  0.09445059  1
  H  H698  1  0.75600343  0.74564964  0.04600235  1
  C  C699  1  0.77986654  0.71523225  0.02428780  1
  C  C700  1  0.75130216  0.79882506  0.48997481  1
  H  H701  1  0.81161998  0.75497539  0.33275759  1
  H  H702  1  0.92188762  0.76414181  0.46369332  1
  C  C703  1  0.75539220  0.84455548  0.46377448  1
  O  O704  1  0.85644431  0.91615854  0.02319590  1
  C  C705  1  0.86549802  0.91573174  0.14809154  1
  C  C706  1  0.93197170  0.96768667  0.29085059  1
  H  H707  1  0.78860808  0.86281520  0.47737544  1
  H  H708  1  0.94265278  0.95638134  0.38708997  1
  C  C709  1  0.79784470  0.99945704  0.30783500  1
  O  O710  1  0.79822412  0.80780639  0.16849720  1
  H  H711  1  0.80597373  0.93253682  0.38348473  1
  O  O712  1  0.83648867  0.88716348  0.20978227  1
  C  C713  1  0.89963983  0.94272024  0.21380929  1
  C  C714  1  0.93865003  0.78417932  0.38790955  1
  H  H715  1  0.92678882  0.77211502  0.28959442  1
  C  C716  1  0.85983638  0.75547540  0.16347195  1
  Cu  Cu717  1  0.77815510  0.86897009  0.15450280  1
  H  H718  1  0.87941079  0.83246908  0.37761589  1
  H  H719  1  0.93751616  0.85321897  0.31973443  1
  C  C720  1  0.83362381  0.79250462  0.10273595  1
  C  C721  1  0.92010870  0.83270979  0.39783548  1
  C  C722  1  0.78019248  0.95686871  0.34030156  1
  O  O723  1  0.98828031  0.76982854  0.39667656  1
  C  C724  1  0.90227410  0.64012081  0.72408224  1
  C  C725  1  0.92130758  0.61479389  0.84458762  1
  C  C726  1  0.79124054  0.63652510  0.76437713  1
  H  H727  1  0.80189565  0.65698652  0.85281722  1
  O  O728  1  0.90238798  0.69201879  0.72643989  1
  C  C729  1  0.86808694  0.71531652  0.67563377  1
  H  H730  1  0.86479121  0.62616879  0.69370332  1
  C  C731  1  0.79996262  0.65419218  0.63458848  1
  C  C732  1  0.82119807  0.69971257  0.62848960  1
  H  H733  1  0.93913703  0.58253707  0.82751422  1
  H  H734  1  0.92475154  0.63806253  0.63586904  1
  C  C735  1  0.78616573  0.72595661  0.57457819  1
  H  H736  1  0.95080386  0.63502846  0.89775319  1
  H  H737  1  0.97011814  0.73051432  0.68884633  1
  C  C738  1  0.76217657  0.59851891  0.77637822  1
  H  H739  1  0.89177151  0.60837161  0.91365440  1
  H  H740  1  0.90659471  0.74920851  0.99679811  1
  C  C741  1  0.75482936  0.59078506  0.53552576  1
  C  C742  1  0.78000465  0.62926505  0.52966641  1
  H  H743  1  0.88944615  0.50281174  0.89512448  1
  H  H744  1  0.75145343  0.70755839  0.55228485  1
  H  H745  1  0.79657331  0.71916917  0.92610366  1
  H  H746  1  0.91006981  0.51372920  0.64982175  1
  H  H747  1  0.84371677  0.51652278  0.68422023  1
  H  H748  1  0.92500373  0.84475979  0.50093055  1
  O  O749  1  0.84766977  0.80747775  0.99729962  1
  H  H750  1  0.77020778  0.80826753  0.72211251  1
  C  C751  1  0.99766738  0.78876788  0.78915697  1
  Cu  Cu752  1  0.83110570  0.86628755  0.93640633  1
  C  C753  1  0.96290383  0.76350183  0.72617386  1
  C  C754  1  0.84820112  0.98424834  0.66153716  1
  C  C755  1  0.90849545  0.82696693  0.75986603  1
  O  O756  1  0.85148149  0.89286660  0.60968744  1
  C  C757  1  0.99109598  0.83543988  0.81804282  1
  C  C758  1  0.78655839  0.96483396  0.83039278  1
  C  C759  1  0.91480747  0.78269023  0.71302482  1
  C  C760  1  0.79504534  0.77129736  0.54585385  1
  H  H761  1  0.94147396  0.89087518  0.84132330  1
  C  C762  1  0.83570647  0.78854711  0.60081895  1
  C  C763  1  0.87064422  0.76101823  0.65798346  1
  H  H764  1  0.87519183  0.97139075  0.59271387  1
  C  C765  1  0.81811990  0.95266425  0.72394278  1
  C  C766  1  0.94491735  0.85424772  0.81150468  1
  H  H767  1  0.83997203  0.82546906  0.60266609  1
  O  O768  1  0.80623515  0.87618418  0.77775642  1
  H  H769  1  0.87284163  0.84030396  0.74337518  1
  C  C770  1  0.82567458  0.90520928  0.69658684  1
  H  H771  1  0.76376942  0.93728143  0.86967135  1
  C  C772  1  0.92421352  0.99880909  0.93046316  1
  H  H773  1  0.92413682  0.96641591  0.97660444  1
