# generated using pymatgen
data_CuH15C22O5
_symmetry_space_group_name_H-M   'P 1'
_cell_length_a   30.73715131
_cell_length_b   33.47770877
_cell_length_c   8.60829456
_cell_angle_alpha   90.00000000
_cell_angle_beta   90.00000000
_cell_angle_gamma   90.00000000
_symmetry_Int_Tables_number   1
_chemical_formula_structural   CuH15C22O5
_chemical_formula_sum   'Cu18 H270 C396 O90'
_cell_volume   8858.01601501
_cell_formula_units_Z   18
loop_
 _symmetry_equiv_pos_site_id
 _symmetry_equiv_pos_as_xyz
  1  'x, y, z'
loop_
 _atom_site_type_symbol
 _atom_site_label
 _atom_site_symmetry_multiplicity
 _atom_site_fract_x
 _atom_site_fract_y
 _atom_site_fract_z
 _atom_site_occupancy
  H  H0  1  0.13545534  0.02927446  0.34442549  1
  C  C1  1  0.06657994  0.04472353  0.35957886  1
  H  H2  1  0.07040783  0.06681399  0.26225045  1
  H  H3  1  0.18856134  0.01759453  0.14174844  1
  C  C4  1  0.11014449  0.03558167  0.43703467  1
  H  H5  1  0.05371511  0.01529095  0.30446765  1
  H  H6  1  0.23738705  0.13052184  0.12969916  1
  O  O7  1  0.16575805  0.11181837  0.04742349  1
  H  H8  1  0.01942933  0.23307883  0.16403594  1
  H  H9  1  0.04044306  0.05244958  0.43685083  1
  C  C10  1  0.20281612  0.03102512  0.48322193  1
  C  C11  1  0.24793061  0.02581627  0.47681499  1
  H  H12  1  0.02091787  0.19656150  0.43045941  1
  O  O13  1  0.03259038  0.08582252  0.04777722  1
  H  H14  1  0.10326668  0.40926655  0.27956870  1
  C  C15  1  0.06557612  0.26537023  0.03057077  1
  C  C16  1  0.04541883  0.25562328  0.15810899  1
  O  O17  1  0.12229876  0.29435430  0.35856918  1
  C  C18  1  0.14774434  0.35928782  0.31158649  1
  C  C19  1  0.13846967  0.40120133  0.29440499  1
  C  C20  1  0.00719596  0.43364583  0.45307781  1
  C  C21  1  0.24735408  0.47988804  0.19411740  1
  H  H22  1  0.17621435  0.34712532  0.03201947  1
  O  O23  1  0.04421155  0.44119030  0.46808675  1
  H  H24  1  0.09107805  0.28799835  0.03355801  1
  C  C25  1  0.19063852  0.34452471  0.31763554  1
  H  H26  1  0.17047480  0.45744362  0.25625803  1
  C  C27  1  0.17471523  0.42468906  0.28615924  1
  C  C28  1  0.22578466  0.36985322  0.30683527  1
  O  O29  1  0.07206253  0.33837253  0.30024164  1
  O  O30  1  0.21015410  0.49288893  0.13591919  1
  H  H31  1  0.19476273  0.31123358  0.33420550  1
  H  H32  1  0.05401354  0.27151073  0.26747278  1
  C  C33  1  0.21888495  0.41143437  0.28424175  1
  C  C34  1  0.11279521  0.32973904  0.31852995  1
  H  H35  1  0.09634111  0.36336697  0.07842312  1
  Cu  Cu36  1  0.03068684  0.35296142  0.44492510  1
  C  C37  1  0.13936789  0.19175862  0.66844436  1
  C  C38  1  0.19045122  0.13554207  0.64578043  1
  C  C39  1  0.16851077  0.20957497  0.77111619  1
  C  C40  1  0.20743628  0.19039474  0.82243549  1
  C  C41  1  0.21601043  0.15310667  0.76141044  1
  C  C42  1  0.15023015  0.15508510  0.60125386  1
  Cu  Cu43  1  0.11799007  0.07555417  0.77868513  1
  H  H44  1  0.05090865  0.17157669  0.74493277  1
  H  H45  1  0.11167139  0.20726113  0.63718195  1
  C  C46  1  0.02572545  0.17739184  0.83078585  1
  O  O47  1  0.15879691  0.05355585  0.91733028  1
  O  O48  1  0.08267017  0.11360581  0.87410000  1
  C  C49  1  0.20669498  0.09729293  0.58357098  1
  H  H50  1  0.23191848  0.20591268  0.89099005  1
  C  C51  1  0.01733631  0.15198117  0.95827085  1
  Cu  Cu52  1  0.13384534  0.14307821  0.90475847  1
  H  H53  1  0.00255768  0.23243656  0.73240377  1
  C  C54  1  0.17900909  0.06638094  0.51933532  1
  C  C55  1  0.15697437  0.24896251  0.82923699  1
  C  C56  1  0.24701567  0.04183849  0.90941567  1
  H  H57  1  0.22613050  0.02293688  0.83102551  1
  H  H58  1  0.24643891  0.13853331  0.79829585  1
  C  C59  1  0.04277286  0.11422078  0.97094454  1
  C  C60  1  0.18062212  0.08031624  0.98427238  1
  H  H61  1  0.10774633  0.00686079  0.50478650  1
  O  O62  1  0.13771228  0.07227453  0.50976674  1
  H  H63  1  0.12778230  0.14424729  0.51164687  1
  H  H64  1  0.05677744  0.24916989  0.92111409  1
  C  C65  1  0.22769939  0.07524102  0.99097257  1
  C  C66  1  0.22081721  0.35878827  0.76410143  1
  O  O67  1  0.18009471  0.26173329  0.93573199  1
  C  C68  1  0.17388875  0.36684404  0.79679917  1
  C  C69  1  0.11118120  0.36902507  0.96714729  1
  C  C70  1  0.10506948  0.39200414  0.70889767  1
  O  O71  1  0.02283210  0.31145424  0.57878924  1
  O  O72  1  0.23870546  0.36213008  0.64227005  1
  H  H73  1  0.24435602  0.43670411  0.93748634  1
  O  O74  1  0.12471459  0.26951809  0.77857092  1
  C  C75  1  0.03446192  0.39525273  0.88374662  1
  C  C76  1  0.08411686  0.38576918  0.85014232  1
  C  C77  1  0.01256111  0.35986962  0.88707988  1
  H  H78  1  0.02896459  0.32968199  0.88578829  1
  C  C79  1  0.14945826  0.38581751  0.67877310  1
  H  H80  1  0.08375154  0.40181841  0.61319702  1
  C  C81  1  0.02034864  0.43471062  0.90529230  1
  H  H82  1  0.16657580  0.39170214  0.56737737  1
  C  C83  1  0.02814125  0.27425747  0.53769550  1
  O  O84  1  0.06165909  0.25624656  0.56135993  1
  C  C85  1  0.15502015  0.35940300  0.94086929  1
  Cu  Cu86  1  0.11881822  0.28165448  0.56737327  1
  O  O87  1  0.24184105  0.34129984  0.87827844  1
  O  O88  1  0.04699471  0.46596893  0.89639590  1
  Cu  Cu89  1  0.23533503  0.28632871  0.94039842  1
  H  H90  1  0.22836311  0.55509598  0.11668783  1
  H  H91  1  0.01217888  0.51245968  0.47435582  1
  C  C92  1  0.21373231  0.53331621  0.03379749  1
  H  H93  1  0.21119680  0.71842770  0.43401186  1
  C  C94  1  0.24564168  0.72006017  0.46731556  1
  H  H95  1  0.01588115  0.72841350  0.04380631  1
  H  H96  1  0.01499401  0.50415493  0.02371709  1
  H  H97  1  0.06129699  0.55812771  0.03159390  1
  H  H98  1  0.15223405  0.56032042  0.05150287  1
  H  H99  1  0.04643673  0.79881267  0.08190697  1
  H  H100  1  0.01331660  0.90668751  0.20218372  1
  C  C101  1  0.17810218  0.98631292  0.16516638  1
  H  H102  1  0.09458014  0.82307442  0.18340986  1
  C  C103  1  0.04505035  0.91640359  0.42550489  1
  C  C104  1  0.11113312  0.82217215  0.06570152  1
  C  C105  1  0.01556993  0.92707101  0.30236094  1
  C  C106  1  0.18919792  0.83680969  0.36624653  1
  C  C107  1  0.21111116  0.79924897  0.37411433  1
  H  H108  1  0.12657028  0.90224917  0.32079277  1
  C  C109  1  0.11648435  0.80665497  0.44664841  1
  C  C110  1  0.11244900  0.87402838  0.37568565  1
  C  C111  1  0.21657996  0.87140984  0.36906904  1
  O  O112  1  0.23719169  0.77807743  0.03749924  1
  C  C113  1  0.18533371  0.95603953  0.05646159  1
  H  H114  1  0.19202557  0.77101331  0.36232009  1
  H  H115  1  0.00119338  0.77311872  0.43669611  1
  H  H116  1  0.13295387  0.77834708  0.46857349  1
  C  C117  1  0.04599090  0.84260834  0.49692162  1
  C  C118  1  0.18412997  0.98909099  0.45503397  1
  C  C119  1  0.16939195  0.97091919  0.31932394  1
  H  H120  1  0.15846399  0.94009397  0.32526767  1
  C  C121  1  0.15171787  0.80443740  0.05098391  1
  C  C122  1  0.06958121  0.87566642  0.43123964  1
  H  H123  1  0.16532392  0.79127498  0.15548336  1
  H  H124  1  0.20483892  0.89938011  0.32167153  1
  C  C125  1  0.14045940  0.83979787  0.38431327  1
  H  H126  1  0.19206780  0.89061711  0.03343941  1
  C  C127  1  0.06784780  0.71539730  0.76029040  1
  H  H128  1  0.08401668  0.69856042  0.84842933  1
  H  H129  1  0.05300262  0.57428016  0.83789682  1
  O  O130  1  0.01503481  0.65106932  0.89519878  1
  C  C131  1  0.02496740  0.70381757  0.71081838  1
  H  H132  1  0.18093253  0.57503782  0.87294896  1
  C  C133  1  0.17277630  0.55113599  0.95639707  1
  C  C134  1  0.00140579  0.67169517  0.79453514  1
  H  H135  1  0.15587695  0.52823159  0.88388030  1
  C  C136  1  0.08673953  0.74897829  0.68708446  1
  H  H137  1  0.00263089  0.51392923  0.82190280  1
  H  H138  1  0.24068215  0.52331327  0.95106292  1
  C  C139  1  0.05913888  0.54690977  0.91456226  1
  C  C140  1  0.02913316  0.50982919  0.90590179  1
  C  C141  1  0.00015289  0.72187414  0.59600318  1
  H  H142  1  0.09198951  0.53464943  0.88742608  1
  H  H143  1  0.03296286  0.99745790  0.65495872  1
  C  C144  1  0.22139561  0.78906953  0.91176411  1
  C  C145  1  0.19118455  0.92118848  0.80469341  1
  H  H146  1  0.11924517  0.75818442  0.72650229  1
  C  C147  1  0.01739467  0.75697117  0.53188185  1
  C  C148  1  0.19073200  0.92043749  0.97456521  1
  H  H149  1  0.03950528  0.79369301  0.86750898  1
  H  H150  1  0.07989852  0.93367830  0.63606923  1
  H  H151  1  0.11376984  0.91745729  0.89041809  1
  C  C152  1  0.00057040  0.94042509  0.90286353  1
  O  O153  1  0.24421296  0.78711143  0.78595146  1
  C  C154  1  0.11846820  0.83540681  0.78182525  1
  C  C155  1  0.15938180  0.81929097  0.76896826  1
  C  C156  1  0.02918457  0.97736000  0.55864097  1
  H  H157  1  0.00956590  0.89647326  0.65370381  1
  C  C158  1  0.04463327  0.93769099  0.88627970  1
  O  O159  1  0.00674426  0.84128826  0.55879715  1
  O  O160  1  0.19277853  0.89478274  0.71627996  1
  C  C161  1  0.05923747  0.87247650  0.93434340  1
  C  C162  1  0.17668573  0.80420490  0.91145545  1
  C  C163  1  0.01641814  0.86598493  0.97971533  1
  C  C164  1  0.07767607  0.91116247  0.89458590  1
  C  C165  1  0.09537394  0.84098434  0.92703015  1
  H  H166  1  0.10326059  0.84631720  0.67183465  1
  C  C167  1  0.02209000  0.79369567  0.98472100  1
  C  C168  1  0.18111759  0.96367105  0.58756575  1
  C  C169  1  0.05455370  0.94204352  0.55217482  1
  O  O170  1  0.18765685  0.96573177  0.73207303  1
  C  C171  1  0.05955712  0.77082536  0.57936806  1
  H  H172  1  0.17764049  0.82040527  0.66260442  1
  C  C173  1  0.07482898  0.80917145  0.50292808  1
  H  H174  1  0.16573018  0.93428204  0.56294186  1
  C  C175  1  0.35942173  0.15924034  0.27951448  1
  C  C176  1  0.36433799  0.12088808  0.36514168  1
  C  C177  1  0.40628368  0.09805204  0.37328380  1
  C  C178  1  0.43227073  0.02623224  0.42720246  1
  C  C179  1  0.47476733  0.04080319  0.39376517  1
  O  O180  1  0.43977384  0.10988677  0.31530687  1
  C  C181  1  0.32266804  0.18451119  0.31732185  1
  C  C182  1  0.38560868  0.17309939  0.15156698  1
  H  H183  1  0.41346807  0.15570431  0.11543684  1
  C  C184  1  0.39795896  0.05767864  0.44125657  1
  C  C185  1  0.30802374  0.21568515  0.22528861  1
  C  C186  1  0.33495302  0.22793733  0.10045099  1
  C  C187  1  0.37356209  0.20577533  0.06505728  1
  H  H188  1  0.27758851  0.23402304  0.23355171  1
  H  H189  1  0.48088787  0.07453141  0.38878164  1
  H  H190  1  0.31711883  0.12802465  0.09748378  1
  C  C191  1  0.45201250  0.05142243  0.05559366  1
  C  C192  1  0.37512266  0.03400759  0.05561408  1
  C  C193  1  0.25196720  0.10576237  0.06654342  1
  C  C194  1  0.29638952  0.10349370  0.04948271  1
  C  C195  1  0.41880220  0.02565098  0.09564323  1
  C  C196  1  0.32414434  0.10683463  0.41894431  1
  H  H197  1  0.30106448  0.17569473  0.41118561  1
  H  H198  1  0.29387407  0.12021042  0.38262866  1
  H  H199  1  0.34783735  0.01468743  0.08665533  1
  H  H200  1  0.48642008  0.04527991  0.09136572  1
  C  C201  1  0.32283995  0.06848477  0.49008881  1
  H  H202  1  0.41299661  0.25740823  0.46586008  1
  C  C203  1  0.25489717  0.44221667  0.26603887  1
  H  H204  1  0.30075350  0.45047866  0.01760636  1
  C  C205  1  0.38628637  0.40324346  0.45267421  1
  C  C206  1  0.42932858  0.47357960  0.06134493  1
  C  C207  1  0.33059622  0.45265740  0.32165092  1
  H  H208  1  0.26036777  0.35835877  0.31457553  1
  C  C209  1  0.40356022  0.40235300  0.01950945  1
  H  H210  1  0.29516942  0.39810679  0.38047487  1
  C  C211  1  0.49849010  0.49152766  0.18016559  1
  C  C212  1  0.43748000  0.43175811  0.07333698  1
  C  C213  1  0.32048873  0.26405361  0.01870794  1
  O  O214  1  0.28450589  0.27807073  0.05335622  1
  H  H215  1  0.47397871  0.39060161  0.20138764  1
  C  C216  1  0.47044539  0.42271207  0.17699072  1
  C  C217  1  0.39447139  0.47328576  0.46418855  1
  C  C218  1  0.29297408  0.42694944  0.32323669  1
  O  O219  1  0.40632363  0.36390216  0.04455832  1
  H  H220  1  0.36905443  0.37563112  0.41278646  1
  C  C221  1  0.32623335  0.49136637  0.26011754  1
  H  H222  1  0.40242592  0.32707701  0.38175499  1
  C  C223  1  0.37291495  0.44000859  0.39529338  1
  C  C224  1  0.42033068  0.32289086  0.49168125  1
  H  H225  1  0.39858131  0.48019969  0.00195048  1
  C  C226  1  0.29190840  0.03963942  0.91211895  1
  C  C227  1  0.39938458  0.09882201  0.92428642  1
  O  O228  1  0.39326996  0.13324937  0.85680646  1
  C  C229  1  0.35144790  0.14335404  0.80440797  1
  C  C230  1  0.34045676  0.17898334  0.69387873  1
  H  H231  1  0.27299528  0.11530899  0.61974527  1
  H  H232  1  0.33312405  0.11636180  0.75935634  1
  H  H233  1  0.47159951  0.13236671  0.71590671  1
  H  H234  1  0.35189499  0.20893085  0.73593037  1
  H  H235  1  0.35646448  0.17669344  0.57937220  1
  H  H236  1  0.30605558  0.18096768  0.67716457  1
  C  C237  1  0.44621886  0.23534450  0.73977009  1
  H  H238  1  0.30482515  0.01198371  0.85951203  1
  O  O239  1  0.42426923  0.21018079  0.63151486  1
  H  H240  1  0.42897735  0.18231213  0.68185393  1
  C  C241  1  0.25177257  0.09171648  0.58259663  1
  O  O242  1  0.46649505  0.22298945  0.84806149  1
  H  H243  1  0.47749019  0.04788799  0.77897956  1
  H  H244  1  0.35772081  0.01422921  0.55880582  1
  C  C245  1  0.27395884  0.05965892  0.51556292  1
  C  C246  1  0.48298748  0.11154558  0.95446646  1
  C  C247  1  0.49198923  0.13533760  0.81680733  1
  C  C248  1  0.44238299  0.08752918  0.97889856  1
  H  H249  1  0.46943673  0.01000789  0.62989130  1
  C  C250  1  0.35963926  0.04372434  0.50857313  1
  C  C251  1  0.47170579  0.01513927  0.75682460  1
  H  H252  1  0.43934630  0.00972953  0.81129624  1
  H  H253  1  0.39438755  0.21584452  0.96157335  1
  H  H254  1  0.33471976  0.15133211  0.91253303  1
  C  C255  1  0.31910052  0.07175079  0.96871084  1
  C  C256  1  0.36777995  0.06992232  0.97335251  1
  O  O257  1  0.37643087  0.41497525  0.93334594  1
  H  H258  1  0.46737508  0.37370026  0.79894067  1
  O  O259  1  0.34649350  0.27722591  0.91426656  1
  C  C260  1  0.44516237  0.27693121  0.68382074  1
  H  H261  1  0.27980237  0.43897915  0.66773933  1
  C  C262  1  0.27965471  0.44236457  0.91665335  1
  C  C263  1  0.42353419  0.28335514  0.53903365  1
  H  H264  1  0.48085606  0.30256216  0.88453480  1
  H  H265  1  0.47749089  0.47611289  0.80573620  1
  O  O266  1  0.48506303  0.42525929  0.68778787  1
  H  H267  1  0.33378051  0.45030125  0.76683793  1
  C  C268  1  0.44823298  0.43154510  0.60762298  1
  C  C269  1  0.43364665  0.35637685  0.58745978  1
  C  C270  1  0.43143334  0.46900727  0.55812441  1
  C  C271  1  0.46347992  0.30842464  0.77411205  1
  C  C272  1  0.42311386  0.39860649  0.55010387  1
  C  C273  1  0.45643824  0.34807047  0.72677832  1
  C  C274  1  0.29770700  0.44335610  0.77814088  1
  Cu  Cu275  1  0.37806499  0.31945228  0.98875792  1
  C  C276  1  0.43834682  0.70348993  0.20223850  1
  H  H277  1  0.44336416  0.68824097  0.30906187  1
  C  C278  1  0.40347623  0.72570757  0.15893040  1
  C  C279  1  0.47322415  0.71101052  0.09552608  1
  H  H280  1  0.29724477  0.64140483  0.31861751  1
  C  C281  1  0.30216400  0.61667012  0.23272434  1
  H  H282  1  0.28098160  0.56940673  0.37624721  1
  C  C283  1  0.29028942  0.57701842  0.25795675  1
  C  C284  1  0.29609245  0.54618567  0.14141580  1
  O  O285  1  0.30655390  0.69227376  0.13007607  1
  H  H286  1  0.49226617  0.63715236  0.09709786  1
  H  H287  1  0.45223596  0.53478431  0.06834029  1
  H  H288  1  0.49349265  0.57340765  0.19368106  1
  H  H289  1  0.37553084  0.72522134  0.23649736  1
  Cu  Cu290  1  0.27731535  0.73543759  0.08876036  1
  C  C291  1  0.45756246  0.50393805  0.10974229  1
  C  C292  1  0.31692924  0.66598139  0.03214584  1
  C  C293  1  0.31184682  0.62421076  0.07487827  1
  H  H294  1  0.49386996  0.52288698  0.41526886  1
  C  C295  1  0.40123568  0.74966223  0.01885207  1
  O  O296  1  0.45885008  0.74559554  0.47331383  1
  C  C297  1  0.28709007  0.50217186  0.18903160  1
  H  H298  1  0.38431575  0.50411664  0.44807307  1
  H  H299  1  0.35186578  0.51407284  0.27000446  1
  H  H300  1  0.47255084  0.83976125  0.14517431  1
  C  C301  1  0.42586182  0.98321949  0.44337582  1
  C  C302  1  0.31640111  0.75505919  0.48154044  1
  C  C303  1  0.27048924  0.75669837  0.45362990  1
  O  O304  1  0.32840067  0.76891114  0.07890886  1
  C  C305  1  0.25700504  0.86964563  0.43862689  1
  C  C306  1  0.29132928  0.92672216  0.01693789  1
  C  C307  1  0.28567351  0.90827659  0.43412830  1
  H  H308  1  0.27359166  0.87938690  0.17587694  1
  C  C309  1  0.29974549  0.92913162  0.30057012  1
  C  C310  1  0.28896058  0.90875007  0.15872716  1
  H  H311  1  0.42256105  0.99827316  0.16762070  1
  C  C312  1  0.45936695  0.95587632  0.41365004  1
  H  H313  1  0.34082280  0.77911957  0.46011162  1
  H  H314  1  0.31977264  0.95535072  0.28742155  1
  H  H315  1  0.48560412  0.76487981  0.19737142  1
  H  H316  1  0.45289247  0.92509327  0.41940510  1
  C  C317  1  0.25276008  0.79809489  0.43999840  1
  H  H318  1  0.26395061  0.99601326  0.44815005  1
  H  H319  1  0.39309625  0.97271854  0.46170322  1
  C  C320  1  0.43288011  0.56540264  0.79490792  1
  H  H321  1  0.41235931  0.57707020  0.88984992  1
  Cu  Cu322  1  0.38869634  0.66253350  0.85490737  1
  O  O323  1  0.44656777  0.64540645  0.85737367  1
  C  C324  1  0.42502034  0.52716083  0.74169616  1
  C  C325  1  0.46208635  0.58730651  0.70618145  1
  C  C326  1  0.46789510  0.62969362  0.75218168  1
  H  H327  1  0.32857887  0.60826206  0.83565077  1
  H  H328  1  0.31532940  0.53579208  0.89854479  1
  O  O329  1  0.33312956  0.67549730  0.89872252  1
  O  O330  1  0.37355495  0.64921996  0.63977896  1
  C  C331  1  0.48430867  0.57236574  0.57374522  1
  C  C332  1  0.33370155  0.64789216  0.58946637  1
  C  C333  1  0.32063426  0.59686352  0.95088795  1
  O  O334  1  0.49305638  0.65078084  0.67053071  1
  C  C335  1  0.44745286  0.51030313  0.61276090  1
  C  C336  1  0.31239275  0.55785629  0.99144089  1
  H  H337  1  0.40260624  0.50455142  0.79110215  1
  C  C338  1  0.47315345  0.73240848  0.95139404  1
  C  C339  1  0.31120410  0.68652989  0.54943402  1
  C  C340  1  0.33746634  0.72049918  0.52806154  1
  O  O341  1  0.31299104  0.61762641  0.57874994  1
  Cu  Cu342  1  0.47937423  0.69920556  0.57497909  1
  C  C343  1  0.47648575  0.53389703  0.52109620  1
  H  H344  1  0.37204694  0.71852156  0.54514342  1
  C  C345  1  0.26695669  0.68624633  0.51507018  1
  H  H346  1  0.25067775  0.65546462  0.52048197  1
  Cu  Cu347  1  0.30307306  0.80419854  0.79110066  1
  C  C348  1  0.43481210  0.75309453  0.90970623  1
  H  H349  1  0.47869594  0.88359966  0.86587861  1
  O  O350  1  0.40333906  0.78211477  0.54471627  1
  H  H351  1  0.29037317  0.91096656  0.68215100  1
  C  C352  1  0.33710269  0.95512397  0.79304671  1
  C  C353  1  0.44193197  0.77543293  0.54254114  1
  C  C354  1  0.29573208  0.94435887  0.87522087  1
  C  C355  1  0.45342446  0.83388089  0.71898525  1
  H  H356  1  0.26327967  0.95089689  0.81498088  1
  C  C357  1  0.30256937  0.92326079  0.56973095  1
  O  O358  1  0.32985527  0.94970988  0.60713480  1
  H  H359  1  0.43136261  0.77154907  0.80554378  1
  C  C360  1  0.47184956  0.80613916  0.61449718  1
  C  C361  1  0.27528089  0.83296665  0.50600158  1
  O  O362  1  0.30742006  0.83057304  0.59057355  1
  C  C363  1  0.48348654  0.85977995  0.78128188  1
  O  O364  1  0.37019172  0.96556695  0.84464478  1
  H  H365  1  0.41905994  0.83458120  0.74602265  1
  O  O366  1  0.35836067  0.79350727  0.86917487  1
  C  C367  1  0.36071744  0.77263732  0.99334939  1
  C  C368  1  0.67426756  0.02316513  0.30055049  1
  C  C369  1  0.59757533  0.17742697  0.40830753  1
  H  H370  1  0.69887515  0.02873083  0.39655701  1
  H  H371  1  0.53988092  0.13663828  0.42022355  1
  H  H372  1  0.58767978  0.19165746  0.30189843  1
  H  H373  1  0.54093387  0.02566193  0.35407064  1
  O  O374  1  0.71370301  0.09571808  0.28429138  1
  C  C375  1  0.66440369  0.04927338  0.17998434  1
  C  C376  1  0.68402811  0.09066799  0.19436311  1
  H  H377  1  0.57019949  0.13771404  0.16822952  1
  C  C378  1  0.50882594  0.01320337  0.37334757  1
  C  C379  1  0.51392558  0.11074693  0.07609575  1
  O  O380  1  0.67454733  0.11719806  0.09229432  1
  Cu  Cu381  1  0.67880584  0.17149934  0.08011908  1
  C  C382  1  0.54963798  0.13555587  0.06793439  1
  O  O383  1  0.61786692  0.18809880  0.07287483  1
  O  O384  1  0.69389959  0.22422972  0.05188256  1
  C  C385  1  0.71113336  0.19222186  0.45361447  1
  C  C386  1  0.67391566  0.21590549  0.46466306  1
  C  C387  1  0.63831845  0.04111075  0.04692730  1
  C  C388  1  0.61844774  0.00421639  0.03060041  1
  H  H389  1  0.70686130  0.16017827  0.47033093  1
  C  C390  1  0.57087368  0.14798441  0.47261161  1
  H  H391  1  0.50428238  0.09264633  0.17595533  1
  H  H392  1  0.59618206  0.24796311  0.36285046  1
  C  C393  1  0.63516595  0.18946938  0.49777935  1
  C  C394  1  0.59237809  0.26363236  0.48099452  1
  H  H395  1  0.71979890  0.41744797  0.47405391  1
  H  H396  1  0.60778710  0.46188175  0.48887495  1
  H  H397  1  0.74952292  0.29608332  0.14304499  1
  C  C398  1  0.71350075  0.27468487  0.41238508  1
  C  C399  1  0.50080466  0.45086559  0.23506449  1
  C  C400  1  0.67204058  0.25876166  0.44944715  1
  H  H401  1  0.53054269  0.44039234  0.30359091  1
  C  C402  1  0.74448978  0.32328253  0.22287082  1
  C  C403  1  0.72635738  0.39043579  0.40879249  1
  O  O404  1  0.58530088  0.46351947  0.15555694  1
  O  O405  1  0.63851080  0.28217500  0.46268991  1
  H  H406  1  0.64601452  0.45843633  0.02486141  1
  H  H407  1  0.67773456  0.39509429  0.16917892  1
  C  C408  1  0.64180916  0.40229760  0.15494537  1
  H  H409  1  0.62448625  0.39176926  0.26213314  1
  C  C410  1  0.72254983  0.31762924  0.36552279  1
  H  H411  1  0.64589028  0.46553761  0.23082566  1
  C  C412  1  0.63374857  0.44692117  0.13141038  1
  H  H413  1  0.62592183  0.38336717  0.06206131  1
  C  C414  1  0.71285740  0.35322522  0.45429022  1
  H  H415  1  0.53156477  0.29005225  0.38451576  1
  C  C416  1  0.54697160  0.28322973  0.49789698  1
  H  H417  1  0.62887551  0.12288298  0.79959379  1
  O  O418  1  0.58757370  0.06649082  0.79329455  1
  H  H419  1  0.67910225  0.17830229  0.69847668  1
  C  C420  1  0.62583280  0.13892667  0.69029669  1
  C  C421  1  0.52748397  0.16181167  0.81913670  1
  C  C422  1  0.58291188  0.02902630  0.80026393  1
  C  C423  1  0.65107059  0.16800889  0.63052008  1
  C  C424  1  0.56556656  0.09065168  0.65110092  1
  O  O425  1  0.59399001  0.22121818  0.86807152  1
  H  H426  1  0.53367786  0.17991366  0.71457838  1
  C  C427  1  0.71151533  0.03292299  0.64191167  1
  C  C428  1  0.58740365  0.12719708  0.60546292  1
  O  O429  1  0.53377420  0.07861230  0.59386718  1
  H  H430  1  0.56783595  0.02622839  0.67763377  1
  C  C431  1  0.59026396  0.19301046  0.96536687  1
  C  C432  1  0.55645421  0.16246481  0.94809440  1
  H  H433  1  0.66213133  0.01845201  0.80037334  1
  H  H434  1  0.59766504  0.24417134  0.58489772  1
  C  C435  1  0.67885085  0.00780215  0.69203686  1
  C  C436  1  0.70192829  0.24246359  0.92408975  1
  H  H437  1  0.62989664  0.06601641  0.97156490  1
  H  H438  1  0.73612565  0.13721217  0.74191395  1
  C  C439  1  0.74077140  0.05510744  0.59543235  1
  H  H440  1  0.54937403  0.31244729  0.56396743  1
  C  C441  1  0.74436798  0.26105518  0.90079052  1
  O  O442  1  0.67353537  0.25073777  0.82113714  1
  H  H443  1  0.55311114  0.42364752  0.88630740  1
  H  H444  1  0.74443327  0.48339014  0.51831422  1
  C  C445  1  0.62713310  0.44532902  0.57807098  1
  C  C446  1  0.66721368  0.46084841  0.63056655  1
  C  C447  1  0.67607662  0.40062753  0.79931053  1
  C  C448  1  0.69043752  0.43835529  0.74704107  1
  H  H449  1  0.71698624  0.44786714  0.81235412  1
  H  H450  1  0.57191780  0.46755941  0.81968446  1
  H  H451  1  0.69780370  0.34729542  0.56725594  1
  H  H452  1  0.53322414  0.46847246  0.97971608  1
  C  C453  1  0.63403168  0.38843049  0.74779253  1
  H  H454  1  0.57385912  0.40325536  0.61615515  1
  O  O455  1  0.57304417  0.34522438  0.77974784  1
  O  O456  1  0.63333858  0.32350819  0.87903962  1
  H  H457  1  0.69216461  0.38452723  0.89383607  1
  C  C458  1  0.61089005  0.35113606  0.80852224  1
  C  C459  1  0.60756779  0.41185077  0.64860117  1
  Cu  Cu460  1  0.61842079  0.27028012  0.87439930  1
  C  C461  1  0.54234860  0.45565628  0.86786937  1
  H  H462  1  0.72873518  0.29230950  0.68004917  1
  C  C463  1  0.50575560  0.46043776  0.74881830  1
  H  H464  1  0.51660802  0.47786029  0.64579602  1
  H  H465  1  0.52369948  0.26508795  0.57865399  1
  C  C466  1  0.69132273  0.53567376  0.21338535  1
  C  C467  1  0.59702207  0.65699250  0.21351677  1
  H  H468  1  0.62939876  0.64272358  0.24064832  1
  H  H469  1  0.68100325  0.53939212  0.33596386  1
  C  C470  1  0.65926245  0.52406590  0.10320669  1
  C  C471  1  0.61115309  0.53203122  0.13479174  1
  C  C472  1  0.60571865  0.57281812  0.14667852  1
  C  C473  1  0.59188569  0.69844033  0.21244205  1
  C  C474  1  0.73338108  0.54588831  0.18081783  1
  C  C475  1  0.56345535  0.58777929  0.16983142  1
  C  C476  1  0.56079024  0.63264636  0.17685422  1
  C  C477  1  0.52683738  0.56173475  0.18416839  1
  C  C478  1  0.65723539  0.72232254  0.39132469  1
  H  H479  1  0.63459070  0.59213356  0.11974395  1
  C  C480  1  0.53583828  0.52064501  0.17717993  1
  C  C481  1  0.55299849  0.72141025  0.18540095  1
  C  C482  1  0.57781767  0.50229737  0.15327303  1
  C  C483  1  0.52117872  0.65261775  0.13217172  1
  H  H484  1  0.59384662  0.59930713  0.42289016  1
  H  H485  1  0.55809393  0.66584238  0.44664205  1
  H  H486  1  0.65609179  0.69703658  0.47701724  1
  C  C487  1  0.63031855  0.72496157  0.25251771  1
  C  C488  1  0.51835015  0.69514660  0.13387141  1
  C  C489  1  0.74263198  0.54607095  0.02006062  1
  C  C490  1  0.50619408  0.82965466  0.18101117  1
  O  O491  1  0.57955813  0.96235650  0.32984880  1
  C  C492  1  0.68674343  0.78904654  0.33404242  1
  C  C493  1  0.63526911  0.75893905  0.15199363  1
  Cu  Cu494  1  0.62245851  0.97114875  0.47222691  1
  C  C495  1  0.71102158  0.82401610  0.37494049  1
  H  H496  1  0.53103266  0.84541620  0.11126934  1
  C  C497  1  0.66515174  0.78877091  0.18893415  1
  C  C498  1  0.50164335  0.97185023  0.38776749  1
  O  O499  1  0.53892233  0.91018746  0.37469813  1
  O  O500  1  0.66163472  0.98856916  0.31965226  1
  C  C501  1  0.68457204  0.75357446  0.42604434  1
  O  O502  1  0.55060907  0.76049198  0.19708250  1
  C  C503  1  0.54084385  0.94583610  0.36881766  1
  H  H504  1  0.61561605  0.76160279  0.04317755  1
  H  H505  1  0.62286535  0.97916757  0.11412921  1
  O  O506  1  0.71308406  0.85424835  0.27890288  1
  H  H507  1  0.66731972  0.81615801  0.11598474  1
  O  O508  1  0.73736279  0.82333687  0.48435235  1
  H  H509  1  0.52723614  0.77802093  0.48991404  1
  H  H510  1  0.73941501  0.96734470  0.03807595  1
  H  H511  1  0.74199379  0.78481439  0.13207476  1
  H  H512  1  0.51787471  0.77832503  0.01473563  1
  H  H513  1  0.51209021  0.83630633  0.30671480  1
  C  C514  1  0.51183794  0.78485332  0.14761589  1
  C  C515  1  0.65765376  0.64138318  0.70635272  1
  C  C516  1  0.63652225  0.67697480  0.72703148  1
  C  C517  1  0.58020130  0.55654245  0.72395628  1
  C  C518  1  0.59831121  0.68374105  0.63991547  1
  C  C519  1  0.64214734  0.61045323  0.60564135  1
  H  H520  1  0.72273023  0.53152458  0.78573985  1
  C  C521  1  0.57328652  0.72055099  0.67558226  1
  C  C522  1  0.65020803  0.53301199  0.61810636  1
  C  C523  1  0.66831172  0.57125547  0.59357754  1
  O  O524  1  0.61192492  0.52537368  0.67316123  1
  H  H525  1  0.60444353  0.57851779  0.77648102  1
  C  C526  1  0.54563337  0.54875393  0.85264897  1
  H  H527  1  0.51395414  0.53675232  0.80817181  1
  C  C528  1  0.71093535  0.58162067  0.54937221  1
  H  H529  1  0.56594967  0.56764119  0.61688632  1
  H  H530  1  0.54214334  0.57552808  0.92474577  1
  H  H531  1  0.72046327  0.61230585  0.53064617  1
  C  C532  1  0.72516990  0.51044977  0.53525057  1
  H  H533  1  0.68791012  0.63958098  0.76476291  1
  H  H534  1  0.64839324  0.69802548  0.81350491  1
  H  H535  1  0.64870303  0.51512322  0.84800767  1
  C  C536  1  0.71461741  0.53113788  0.90676734  1
  O  O537  1  0.53950924  0.72157491  0.58034426  1
  C  C538  1  0.74136725  0.55022122  0.52160397  1
  H  H539  1  0.55688561  0.52715352  0.93831622  1
  O  O540  1  0.57661966  0.74328738  0.77996585  1
  C  C541  1  0.58464091  0.65685645  0.52763491  1
  C  C542  1  0.60438317  0.61943953  0.51823178  1
  C  C543  1  0.68299480  0.50248538  0.58907115  1
  C  C544  1  0.67229713  0.51955238  0.94422371  1
  H  H545  1  0.50454356  0.59548967  0.51095951  1
  H  H546  1  0.50119206  0.73349265  0.87555485  1
  H  H547  1  0.53852235  0.99374683  0.75675274  1
  C  C548  1  0.74864723  0.83111225  0.86642050  1
  H  H549  1  0.68148401  0.81351990  0.82511293  1
  C  C550  1  0.71763383  0.90838078  0.84280234  1
  C  C551  1  0.70340223  0.83818558  0.84446553  1
  O  O552  1  0.66059046  0.97674955  0.63603404  1
  H  H553  1  0.65734551  0.95406906  0.91051866  1
  O  O554  1  0.51021229  0.94390038  0.81191077  1
  C  C555  1  0.63131767  0.93315010  0.88418354  1
  C  C556  1  0.51608433  0.80124511  0.56832617  1
  H  H557  1  0.70726631  0.93870649  0.82384822  1
  C  C558  1  0.55075480  0.92855801  0.82886864  1
  C  C559  1  0.59427706  0.99515497  0.89096917  1
  H  H560  1  0.57762365  0.82506070  0.59570587  1
  C  C561  1  0.60292546  0.86994925  0.80437693  1
  C  C562  1  0.63961644  0.89276576  0.84800804  1
  H  H563  1  0.60810673  0.83701203  0.77478022  1
  C  C564  1  0.68699807  0.87767604  0.84065430  1
  C  C565  1  0.56200397  0.88769876  0.79623035  1
  C  C566  1  0.52761131  0.85777197  0.73770297  1
  C  C567  1  0.58874030  0.95025860  0.86781024  1
  C  C568  1  0.54407594  0.82771383  0.63591211  1
  H  H569  1  0.51443048  0.99796635  0.95428132  1
  C  C570  1  0.50700640  0.98962850  0.82950846  1
  H  H571  1  0.70575346  0.75129803  0.52940492  1
  C  C572  1  0.81931427  0.08373873  0.29300406  1
  C  C573  1  0.79285804  0.14461806  0.37381550  1
  C  C574  1  0.83059441  0.12715086  0.33984318  1
  C  C575  1  0.79291664  0.18735177  0.39242711  1
  H  H576  1  0.75962858  0.13076730  0.36822406  1
  Cu  Cu577  1  0.92018520  0.07529603  0.33628479  1
  H  H578  1  0.78068960  0.02999928  0.35099065  1
  C  C579  1  0.87277152  0.14559042  0.33668610  1
  C  C580  1  0.87208232  0.18724131  0.38620216  1
  C  C581  1  0.79361178  0.05965766  0.38864114  1
  C  C582  1  0.83203568  0.20781072  0.39882650  1
  O  O583  1  0.90640479  0.12561217  0.30477561  1
  C  C584  1  0.82883582  0.06633257  0.14627819  1
  O  O585  1  0.93745833  0.02753274  0.37205289  1
  H  H586  1  0.82574662  0.03325978  0.12183908  1
  C  C587  1  0.91165699  0.21121908  0.41083871  1
  C  C588  1  0.95399900  0.19311970  0.40127614  1
  H  H589  1  0.92328967  0.19162201  0.12571282  1
  H  H590  1  0.95495859  0.16016835  0.37904718  1
  H  H591  1  0.76751952  0.22676434  0.10794135  1
  H  H592  1  0.83341713  0.24078197  0.43363118  1
  C  C593  1  0.95395640  0.18897795  0.05644027  1
  H  H594  1  0.97972991  0.13542742  0.15655267  1
  H  H595  1  0.77622033  0.03164709  0.02643573  1
  C  C596  1  0.98250842  0.15636191  0.06589735  1
  O  O597  1  0.84509068  0.07937646  0.02101601  1
  C  C598  1  0.96839135  0.01996775  0.47133981  1
  C  C599  1  0.99160684  0.21343292  0.43791076  1
  C  C600  1  0.77447525  0.24814691  0.01342741  1
  C  C601  1  0.75074068  0.21030250  0.40934643  1
  H  H602  1  0.84322082  0.25691531  0.07631129  1
  C  C603  1  0.75241288  0.39398700  0.26887227  1
  C  C604  1  0.76058984  0.35989403  0.17566479  1
  C  C605  1  0.91071303  0.25199309  0.46094102  1
  H  H606  1  0.85690933  0.46504879  0.44998050  1
  C  C607  1  0.89095298  0.47596501  0.45083408  1
  H  H608  1  0.91815576  0.41592222  0.42851571  1
  H  H609  1  0.87846794  0.26750487  0.48549562  1
  C  C610  1  0.94002210  0.49290620  0.10885858  1
  H  H611  1  0.94747370  0.47756492  0.21850242  1
  H  H612  1  0.77928446  0.36086308  0.06696926  1
  C  C613  1  0.92489874  0.44939992  0.43773816  1
  O  O614  1  0.77098172  0.46124545  0.30422215  1
  H  H615  1  0.83467297  0.47874724  0.12164730  1
  C  C616  1  0.81042413  0.47093763  0.02598829  1
  H  H617  1  0.78091917  0.26671917  0.36340959  1
  C  C618  1  0.96922424  0.46203977  0.45124867  1
  H  H619  1  0.78289668  0.49341063  0.04264896  1
  O  O620  1  0.99132503  0.39703887  0.44249439  1
  C  C621  1  0.77100813  0.43147244  0.22864266  1
  O  O622  1  0.79711604  0.43386832  0.07053403  1
  C  C623  1  0.75049075  0.25234203  0.39287878  1
  C  C624  1  0.98813746  0.25303133  0.49138626  1
  C  C625  1  0.85080040  0.05157542  0.87686547  1
  H  H626  1  0.88786525  0.12071021  0.66468923  1
  C  C627  1  0.86503184  0.14332605  0.70654206  1
  C  C628  1  0.89062544  0.18026639  0.76628594  1
  O  O629  1  0.86688479  0.21931718  0.79181362  1
  H  H630  1  0.84832157  0.12790803  0.80148114  1
  H  H631  1  0.91653989  0.18799928  0.68322455  1
  O  O632  1  0.87768677  0.05877495  0.78349858  1
  H  H633  1  0.90580736  0.17332335  0.88115003  1
  H  H634  1  0.84195373  0.14957764  0.60791877  1
  C  C635  1  0.96202613  0.21440541  0.92773620  1
  C  C636  1  0.82709432  0.01381095  0.86274678  1
  C  C637  1  0.78246827  0.14627473  0.92268564  1
  H  H638  1  0.78930678  0.10442425  0.57582986  1
  C  C639  1  0.75972922  0.15556219  0.79564258  1
  H  H640  1  0.75993673  0.18684778  0.74918068  1
  H  H641  1  0.80639893  0.16693355  0.98022349  1
  C  C642  1  0.78953014  0.00701175  0.95550508  1
  O  O643  1  0.97358571  0.04154863  0.57934868  1
  H  H644  1  0.78119589  0.11415846  0.96535561  1
  C  C645  1  0.99806940  0.21073202  0.82298962  1
  C  C646  1  0.77648480  0.07558473  0.52777264  1
  C  C647  1  0.89133251  0.25124225  0.83269852  1
  H  H648  1  0.85334726  0.45363969  0.83865203  1
  C  C649  1  0.94701834  0.27252018  0.50804709  1
  C  C650  1  0.82884324  0.47703020  0.85514964  1
  H  H651  1  0.80355928  0.31594715  0.64672655  1
  C  C652  1  0.93508940  0.25120383  0.88533578  1
  C  C653  1  0.95858744  0.28523203  0.92546991  1
  C  C654  1  0.97489367  0.43564805  0.93644509  1
  C  C655  1  0.89502180  0.32897170  0.85466884  1
  H  H656  1  0.94384189  0.30146522  0.56041428  1
  C  C657  1  0.94882824  0.47401014  0.96033554  1
  C  C658  1  0.93237206  0.48904691  0.81535720  1
  H  H659  1  0.80382242  0.47468264  0.76017140  1
  C  C660  1  0.93992936  0.32432269  0.88775637  1
  H  H661  1  0.87782730  0.35788203  0.84643257  1
  C  C662  1  0.94791609  0.40251527  0.92982717  1
  C  C663  1  0.75352590  0.28519884  0.76689821  1
  C  C664  1  0.96654637  0.36353918  0.90404940  1
  C  C665  1  0.79500264  0.29951773  0.75591406  1
  H  H666  1  0.91158303  0.40609063  0.95111373  1
  C  C667  1  0.82634866  0.28871909  0.87136368  1
  H  H668  1  0.93306540  0.46882901  0.71400355  1
  C  C669  1  0.87566350  0.29097660  0.84887368  1
  H  H670  1  0.98933004  0.28165565  0.98031295  1
  C  C671  1  0.81615399  0.26354858  0.99762105  1
  Cu  Cu672  1  0.83503224  0.62064411  0.15224541  1
  H  H673  1  0.91257018  0.54745545  0.21303935  1
  O  O674  1  0.80890305  0.57126414  0.10376112  1
  O  O675  1  0.79027418  0.65152582  0.05524302  1
  C  C676  1  0.92261030  0.53123459  0.10315840  1
  O  O677  1  0.88920484  0.60782922  0.06940974  1
  C  C678  1  0.80713248  0.72818438  0.40789886  1
  C  C679  1  0.80356968  0.68719463  0.42242042  1
  H  H680  1  0.77517295  0.66969097  0.39232205  1
  C  C681  1  0.89991589  0.51823582  0.45266531  1
  C  C682  1  0.94456884  0.53132793  0.45524765  1
  O  O683  1  0.91278050  0.60593803  0.42768038  1
  H  H684  1  0.77929126  0.74709246  0.36766045  1
  C  C685  1  0.87643410  0.59370761  0.45028701  1
  C  C686  1  0.84660460  0.74625245  0.45422460  1
  H  H687  1  0.75839362  0.55508355  0.26949882  1
  C  C688  1  0.84097524  0.66373997  0.46557857  1
  C  C689  1  0.83790200  0.61905110  0.46032340  1
  C  C690  1  0.86777283  0.54977197  0.45895838  1
  C  C691  1  0.76647523  0.72946299  0.04004711  1
  H  H692  1  0.76335545  0.71372186  0.15530399  1
  H  H693  1  0.95198946  0.56437325  0.44241708  1
  C  C694  1  0.97824312  0.50238765  0.46272364  1
  C  C695  1  0.79562237  0.60410773  0.47370975  1
  H  H696  1  0.81460010  0.50611063  0.49852890  1
  H  H697  1  0.76683874  0.62464797  0.47543328  1
  C  C698  1  0.82490736  0.53722570  0.47672782  1
  C  C699  1  0.78882810  0.56311720  0.49369519  1
  H  H700  1  0.96678475  0.75595994  0.07676486  1
  C  C701  1  0.99604617  0.98365873  0.44992816  1
  C  C702  1  0.91462153  0.93211023  0.01677819  1
  C  C703  1  0.75547264  0.76944100  0.02489479  1
  C  C704  1  0.98863015  0.95959459  0.31430307  1
  H  H705  1  0.88525534  0.78665829  0.09200341  1
  H  H706  1  0.85174055  0.95698980  0.07707564  1
  Cu  Cu707  1  0.75539228  0.89532312  0.27159068  1
  H  H708  1  0.90199483  0.83722535  0.06582503  1
  O  O709  1  0.88700115  0.80545441  0.48306600  1
  O  O710  1  0.79949618  0.93196858  0.27977452  1
  C  C711  1  0.90631574  0.88386888  0.29146119  1
  C  C712  1  0.87274574  0.91055167  0.24047555  1
  Cu  Cu713  1  0.78729437  0.85354573  0.48361651  1
  H  H714  1  0.90163088  0.86377353  0.38945099  1
  C  C715  1  0.87723524  0.93476758  0.10383406  1
  O  O716  1  0.83294588  0.89452245  0.45989944  1
  C  C717  1  0.94968432  0.90640660  0.06213714  1
  H  H718  1  0.81409799  0.81231155  0.01527666  1
  C  C719  1  0.85421305  0.78958434  0.43888089  1
  C  C720  1  0.94183193  0.88169943  0.19754456  1
  C  C721  1  0.83270733  0.91342347  0.32995373  1
  H  H722  1  0.96593877  0.85972740  0.23511454  1
  H  H723  1  0.96094816  0.96281828  0.23219109  1
  O  O724  1  0.82228134  0.81245740  0.38547400  1
  H  H725  1  0.98063985  0.89259952  0.46770362  1
  O  O726  1  0.99590399  0.83215882  0.01798494  1
  O  O727  1  0.78984015  0.64265493  0.79993417  1
  Cu  Cu728  1  0.82959377  0.60644569  0.75258020  1
  H  H729  1  0.90537657  0.54145940  0.69994917  1
  O  O730  1  0.88562594  0.60042338  0.81445370  1
  O  O731  1  0.80382987  0.56138875  0.85275166  1
  C  C732  1  0.91530754  0.52810007  0.81065383  1
  C  C733  1  0.77830578  0.70800265  0.90632259  1
  C  C734  1  0.78398360  0.72693500  0.75940662  1
  H  H735  1  0.79291412  0.70851508  0.65874228  1
  C  C736  1  0.91114369  0.54655898  0.95465370  1
  C  C737  1  0.78787532  0.66525404  0.91674236  1
  H  H738  1  0.94844086  0.64265540  0.79359600  1
  O  O739  1  0.95530009  0.66796161  0.74404881  1
  C  C740  1  0.89663953  0.58913989  0.95116445  1
  H  H741  1  0.96777505  0.70982039  0.56709939  1
  H  H742  1  0.98580352  0.74348852  0.87945426  1
  H  H743  1  0.84787187  0.50479993  0.84623599  1
  C  C744  1  0.88224368  0.72381350  0.51311179  1
  C  C745  1  0.88044300  0.68202044  0.51676807  1
  H  H746  1  0.90862774  0.66353059  0.55860270  1
  H  H747  1  0.91302894  0.74138025  0.52633475  1
  C  C748  1  0.78690037  0.56113158  0.98471669  1
  C  C749  1  0.99669790  0.75358640  0.99847105  1
  C  C750  1  0.76871646  0.97076953  0.96346881  1
  C  C751  1  0.99143273  0.90308627  0.98070719  1
  C  C752  1  0.76066949  0.90072771  0.87659819  1
  H  H753  1  0.77983514  0.78224511  0.63130474  1
  C  C754  1  0.88884571  0.81193083  0.99922711  1
  H  H755  1  0.83930993  0.92001371  0.70934559  1
  C  C756  1  0.84324698  0.81964535  0.93374157  1
  C  C757  1  0.76083314  0.78687579  0.87814244  1
  H  H758  1  0.87464514  0.98418579  0.71769442  1
  C  C759  1  0.84380966  0.98154121  0.77540723  1
  C  C760  1  0.98121773  0.88069812  0.59246424  1
  H  H761  1  0.98101404  0.96943811  0.91936722  1
  H  H762  1  0.83617589  0.79949968  0.82530766  1
  C  C763  1  0.93730884  0.88822378  0.67115345  1
  H  H764  1  0.91367876  0.87483636  0.57856685  1
  C  C765  1  0.77808043  0.76717409  0.74347751  1
  H  H766  1  0.91300036  0.80367437  0.91027380  1
  H  H767  1  0.93358082  0.87572358  0.79400295  1
  C  C768  1  0.77969189  0.86173842  0.89405951  1
  H  H769  1  0.92720207  0.92086853  0.66919234  1
  C  C770  1  0.82478546  0.94339881  0.78197799  1
  O  O771  1  0.82168944  0.86118327  0.92047735  1
  H  H772  1  0.91889455  0.94993014  0.91072275  1
  C  C773  1  0.78707829  0.93840283  0.87520119  1
