# generated using pymatgen
data_CuH15C22O5
_symmetry_space_group_name_H-M   'P 1'
_cell_length_a   29.23060055
_cell_length_b   32.35729127
_cell_length_c   11.58382006
_cell_angle_alpha   90.00000000
_cell_angle_beta   90.00000000
_cell_angle_gamma   90.00000000
_symmetry_Int_Tables_number   1
_chemical_formula_structural   CuH15C22O5
_chemical_formula_sum   'Cu18 H270 C396 O90'
_cell_volume   10956.24408923
_cell_formula_units_Z   18
loop_
 _symmetry_equiv_pos_site_id
 _symmetry_equiv_pos_as_xyz
  1  'x, y, z'
loop_
 _atom_site_type_symbol
 _atom_site_label
 _atom_site_symmetry_multiplicity
 _atom_site_fract_x
 _atom_site_fract_y
 _atom_site_fract_z
 _atom_site_occupancy
  H  H0  1  0.11031700  0.13794821  0.10700502  1
  C  C1  1  0.12984653  0.13742266  0.19044443  1
  C  C2  1  0.16318114  0.10835274  0.20972752  1
  C  C3  1  0.17846033  0.07916737  0.13116328  1
  C  C4  1  0.21100582  0.04981678  0.17711112  1
  C  C5  1  0.11775912  0.16637931  0.27421126  1
  H  H6  1  0.17879445  0.10911501  0.29672858  1
  C  C7  1  0.13700053  0.17916705  0.39095055  1
  H  H8  1  0.05987992  0.19059510  0.18294040  1
  C  C9  1  0.08038554  0.19284962  0.26104911  1
  H  H10  1  0.20401924  0.14299565  0.42189167  1
  O  O11  1  0.07064792  0.21797080  0.34009323  1
  C  C12  1  0.10690796  0.20900500  0.43636495  1
  C  C13  1  0.17710053  0.16530769  0.45436845  1
  O  O14  1  0.22517232  0.05042464  0.27309602  1
  H  H15  1  0.11853375  0.03140549  0.22228181  1
  C  C16  1  0.17561197  0.24546572  0.20870514  1
  H  H17  1  0.17052159  0.21371712  0.18164044  1
  C  C18  1  0.10388782  0.00078922  0.19791696  1
  H  H19  1  0.16498072  0.24583664  0.30195016  1
  O  O20  1  0.22380073  0.01184511  0.10159414  1
  H  H21  1  0.03419256  0.16452042  0.01891467  1
  C  C22  1  0.00571491  0.24312848  0.04144688  1
  C  C23  1  0.16322446  0.07494025  0.00950260  1
  H  H24  1  0.08030599  0.02103675  0.02233162  1
  H  H25  1  0.08114211  0.22275379  0.01880253  1
  H  H26  1  0.13842334  0.00040215  0.02493009  1
  H  H27  1  0.19045250  0.15473106  0.00249094  1
  O  O28  1  0.23133685  0.20408497  0.01369835  1
  H  H29  1  0.21258068  0.25298686  0.19617155  1
  H  H30  1  0.01001145  0.26274983  0.22466038  1
  H  H31  1  0.21443651  0.49672776  0.43990862  1
  C  C32  1  0.13554032  0.31128406  0.39833859  1
  C  C33  1  0.00274538  0.44655274  0.22907748  1
  H  H34  1  0.11427150  0.41056641  0.49923851  1
  C  C35  1  0.18083186  0.30738367  0.43370174  1
  H  H36  1  0.10478683  0.43146708  0.10423253  1
  C  C37  1  0.20061681  0.39993505  0.11845447  1
  C  C38  1  0.23752291  0.42031796  0.05864419  1
  C  C39  1  0.13818260  0.34846337  0.05466769  1
  C  C40  1  0.20293000  0.34070111  0.49222348  1
  C  C41  1  0.01488138  0.40282648  0.27177626  1
  O  O42  1  0.09945778  0.42103265  0.27407182  1
  C  C43  1  0.02259585  0.26792012  0.13399356  1
  C  C44  1  0.13278489  0.49092311  0.17685729  1
  H  H45  1  0.10822721  0.26849508  0.14711912  1
  C  C46  1  0.11400332  0.35129814  0.41476655  1
  C  C47  1  0.04791019  0.30365404  0.10847239  1
  H  H48  1  0.23594204  0.39777689  0.40329110  1
  O  O49  1  0.15096803  0.32133089  0.13571401  1
  C  C50  1  0.03297925  0.33268471  0.38901314  1
  H  H51  1  0.04109485  0.30507955  0.43347583  1
  H  H52  1  0.04331016  0.46808673  0.36706213  1
  C  C53  1  0.14559666  0.27615122  0.13561848  1
  C  C54  1  0.23658540  0.40042766  0.30661939  1
  C  C55  1  0.09866407  0.45352779  0.18175598  1
  H  H56  1  0.20191064  0.27824805  0.42798173  1
  C  C57  1  0.02047265  0.47820225  0.29928405  1
  H  H58  1  0.05631809  0.32756895  0.17697444  1
  C  C59  1  0.13491366  0.38357962  0.47849358  1
  H  H60  1  0.17055142  0.36620836  0.27696054  1
  H  H61  1  0.15309658  0.27257654  0.03962664  1
  C  C62  1  0.06316690  0.39863556  0.29786846  1
  H  H63  1  0.16946271  0.48133892  0.17482159  1
  H  H64  1  0.06396247  0.46705595  0.16829079  1
  C  C65  1  0.16211153  0.38570334  0.04030066  1
  C  C66  1  0.06711775  0.36166915  0.36557257  1
  H  H67  1  0.22758284  0.33885405  0.09824606  1
  C  C68  1  0.20041262  0.38707316  0.23876620  1
  H  H69  1  0.11502574  0.28537142  0.36640157  1
  C  C70  1  0.11312901  0.12888330  0.81852192  1
  C  C71  1  0.07543232  0.12811499  0.89502464  1
  C  C72  1  0.15116124  0.21021377  0.61374048  1
  H  H73  1  0.12204929  0.10111471  0.76472889  1
  C  C74  1  0.14341604  0.16217494  0.83179024  1
  H  H75  1  0.17311257  0.16318339  0.77366166  1
  C  C76  1  0.13318634  0.19661409  0.90277093  1
  H  H77  1  0.03073125  0.20619283  0.60764986  1
  C  C78  1  0.22556174  0.17078900  0.63954249  1
  H  H79  1  0.22254601  0.10466935  0.62658036  1
  O  O80  1  0.05275015  0.05953007  0.84334685  1
  C  C81  1  0.04558259  0.09227141  0.90052689  1
  C  C82  1  0.16470521  0.23390032  0.89404200  1
  C  C83  1  0.20900225  0.23795127  0.94360432  1
  O  O84  1  0.16910379  0.05375148  0.92660257  1
  H  H85  1  0.15858945  0.22285416  0.69911154  1
  C  C86  1  0.18248355  0.18344355  0.56657973  1
  C  C87  1  0.06562491  0.16222778  0.96796765  1
  C  C88  1  0.03440195  0.23965571  0.62255102  1
  C  C89  1  0.11165395  0.22472670  0.54705465  1
  C  C90  1  0.09359197  0.19596907  0.97025430  1
  H  H91  1  0.23024056  0.16686530  0.87655253  1
  C  C92  1  0.24227440  0.13072127  0.66126503  1
  O  O93  1  0.01204055  0.09461715  0.96893078  1
  Cu  Cu94  1  0.01077861  0.03527002  0.73056709  1
  C  C95  1  0.22712924  0.16474301  0.97721958  1
  H  H96  1  0.13508913  0.09584792  0.97307768  1
  H  H97  1  0.24911170  0.09968396  0.99758913  1
  C  C98  1  0.12261744  0.43090672  0.75992567  1
  H  H99  1  0.04750063  0.29703461  0.80575941  1
  O  O100  1  0.02223434  0.45145496  0.93144778  1
  H  H101  1  0.10311212  0.26799669  0.80275280  1
  C  C102  1  0.01112874  0.25622975  0.92487989  1
  H  H103  1  0.17060256  0.44540236  0.96062824  1
  C  C104  1  0.14054556  0.26741083  0.83440258  1
  C  C105  1  0.05045277  0.32633210  0.63272676  1
  C  C106  1  0.12027087  0.40394286  0.86767132  1
  H  H107  1  0.23440809  0.43013895  0.97193777  1
  H  H108  1  0.12041510  0.31264297  0.59201216  1
  C  C109  1  0.20724743  0.31396784  0.88796404  1
  C  C110  1  0.07760749  0.25683806  0.59693672  1
  C  C111  1  0.22702168  0.27813236  0.94826013  1
  C  C112  1  0.14205526  0.49454037  0.57186842  1
  C  C113  1  0.16730875  0.30064312  0.84507942  1
  C  C114  1  0.17873387  0.37782314  0.51967743  1
  C  C115  1  0.00671002  0.30788252  0.65548743  1
  C  C116  1  0.01562712  0.48639380  0.57707146  1
  C  C117  1  0.08675043  0.30026985  0.60780108  1
  C  C118  1  0.04001115  0.28841424  0.89858138  1
  H  H119  1  0.22142862  0.34593351  0.88371979  1
  H  H120  1  0.01394628  0.45448768  0.61301504  1
  C  C121  1  0.15306366  0.41394946  0.95312056  1
  C  C122  1  0.16709896  0.44657337  0.73780235  1
  C  C123  1  0.08687089  0.45015302  0.69885568  1
  C  C124  1  0.09821022  0.34427774  0.97843564  1
  H  H125  1  0.19659698  0.43558138  0.78431999  1
  C  C126  1  0.09018593  0.37040791  0.88977944  1
  H  H127  1  0.19513295  0.40127604  0.57698572  1
  H  H128  1  0.06088385  0.36484186  0.83306935  1
  H  H129  1  0.05055534  0.36048693  0.62389858  1
  H  H130  1  0.00362715  0.38421308  0.99629947  1
  C  C131  1  0.17254472  0.47705149  0.65382121  1
  C  C132  1  0.21969137  0.49546072  0.66196154  1
  H  H133  1  0.04967903  0.44373131  0.71987895  1
  C  C134  1  0.09812549  0.48262924  0.61794466  1
  C  C135  1  0.06192303  0.31017801  0.99137867  1
  H  H136  1  0.14149295  0.65818127  0.20099776  1
  C  C137  1  0.07346150  0.69329310  0.25396475  1
  C  C138  1  0.15933639  0.68668708  0.17312295  1
  C  C139  1  0.02726721  0.68557657  0.25160796  1
  H  H140  1  0.09368738  0.66926381  0.29932716  1
  C  C141  1  0.20249526  0.68708894  0.14154357  1
  C  C142  1  0.09420779  0.73071443  0.20455324  1
  C  C143  1  0.21227441  0.55600199  0.34908557  1
  H  H144  1  0.24421925  0.54725985  0.31404412  1
  C  C145  1  0.20144171  0.52967063  0.45750845  1
  C  C146  1  0.14097291  0.72929338  0.16764026  1
  H  H147  1  0.21265924  0.59129323  0.36460224  1
  H  H148  1  0.02218787  0.54436208  0.33828966  1
  C  C149  1  0.23374833  0.71461737  0.09632245  1
  H  H150  1  0.17228234  0.66303112  0.44214745  1
  C  C151  1  0.16410964  0.72890067  0.43716904  1
  H  H152  1  0.15434744  0.73019928  0.34313120  1
  C  C153  1  0.00891460  0.51949616  0.28331370  1
  H  H154  1  0.18680396  0.54933313  0.28398967  1
  H  H155  1  0.01411337  0.65343401  0.27354078  1
  H  H156  1  0.12384473  0.50803943  0.09178167  1
  C  C157  1  0.17648111  0.69198081  0.48783257  1
  O  O158  1  0.15071683  0.51946585  0.48482420  1
  H  H159  1  0.12699558  0.51247436  0.24933880  1
  C  C160  1  0.01867831  0.74676762  0.47729582  1
  H  H161  1  0.02080930  0.71191207  0.48832457  1
  C  C162  1  0.01411377  0.75778781  0.18310942  1
  H  H163  1  0.00847968  0.75514014  0.38978931  1
  C  C164  1  0.09019458  0.94342637  0.48950463  1
  H  H165  1  0.17106977  0.92115932  0.38254476  1
  H  H166  1  0.17533701  0.90392487  0.06862105  1
  C  C167  1  0.17138076  0.83565196  0.11342049  1
  C  C168  1  0.20152874  0.86157780  0.38109423  1
  H  H169  1  0.03127290  0.90579775  0.01119037  1
  C  C170  1  0.06088329  0.76354323  0.18352917  1
  H  H171  1  0.21623759  0.91005395  0.20212557  1
  O  O172  1  0.14358927  0.80075406  0.13465736  1
  C  C173  1  0.21172422  0.75564556  0.09206306  1
  O  O174  1  0.08397934  0.95926787  0.02059430  1
  H  H175  1  0.11850284  0.88050017  0.04229158  1
  C  C176  1  0.14976516  0.87999372  0.09991515  1
  H  H177  1  0.20267175  0.83788182  0.16938598  1
  H  H178  1  0.07500926  0.79513138  0.16273894  1
  H  H179  1  0.18913779  0.82748319  0.02581850  1
  C  C180  1  0.10265010  0.99596792  0.06252327  1
  H  H181  1  0.03061559  0.85742149  0.39462306  1
  C  C182  1  0.03647377  0.88923679  0.43527151  1
  H  H183  1  0.22674517  0.79891709  0.40068998  1
  C  C184  1  0.24968604  0.90353072  0.24736317  1
  H  H185  1  0.12671962  0.95431788  0.48713441  1
  C  C186  1  0.08227640  0.90225059  0.45020367  1
  C  C187  1  0.12168445  0.87226304  0.43213496  1
  H  H188  1  0.13687691  0.89068861  0.19201204  1
  C  C189  1  0.24977639  0.87741781  0.34498024  1
  C  C190  1  0.24768273  0.98231777  0.14338848  1
  C  C191  1  0.16640439  0.76350968  0.13062424  1
  C  C192  1  0.16469098  0.88837927  0.39578620  1
  C  C193  1  0.19705959  0.81924634  0.40809042  1
  C  C194  1  0.15483418  0.80579900  0.45123607  1
  C  C195  1  0.11296806  0.82994909  0.45433160  1
  H  H196  1  0.06803208  0.99674785  0.23451511  1
  H  H197  1  0.12635539  0.97683569  0.23643463  1
  O  O198  1  0.07192232  0.81477852  0.47340635  1
  H  H199  1  0.09051686  0.75742411  0.42570445  1
  C  C200  1  0.06633865  0.76665632  0.49643194  1
  C  C201  1  0.19790018  0.72698517  0.66654074  1
  C  C202  1  0.22397219  0.53060902  0.73471987  1
  H  H203  1  0.19329753  0.53993301  0.78809209  1
  C  C204  1  0.21839085  0.65198961  0.63803526  1
  H  H205  1  0.00964999  0.52368671  0.95320594  1
  C  C206  1  0.19637445  0.69155951  0.59633445  1
  C  C207  1  0.06251013  0.55116834  0.54453655  1
  H  H208  1  0.09475433  0.56550454  0.53258401  1
  O  O209  1  0.21002001  0.62075110  0.58837974  1
  H  H210  1  0.21451440  0.54392888  0.53801726  1
  H  H211  1  0.02382833  0.51111525  0.80285749  1
  H  H212  1  0.21324431  0.72536845  0.75197189  1
  C  C213  1  0.02291188  0.57213928  0.51696973  1
  H  H214  1  0.02374087  0.59253281  0.84730695  1
  H  H215  1  0.02395019  0.60745980  0.50085821  1
  C  C216  1  0.05918228  0.50662103  0.57168510  1
  O  O217  1  0.24810876  0.65256478  0.72238743  1
  H  H218  1  0.10648362  0.73375459  0.85779382  1
  H  H219  1  0.07918806  0.73013565  0.99652739  1
  C  C220  1  0.00961237  0.86283068  0.87846458  1
  C  C221  1  0.05765211  0.86211131  0.69680932  1
  C  C222  1  0.06951581  0.91232679  0.85163374  1
  H  H223  1  0.06205743  0.99911377  0.55873281  1
  H  H224  1  0.11890730  0.77006001  0.97798278  1
  C  C225  1  0.16578126  0.76485299  0.50476797  1
  H  H226  1  0.20426311  0.96514222  0.94000917  1
  H  H227  1  0.04108661  0.80304593  0.93514316  1
  H  H228  1  0.06761408  0.79624023  0.79862049  1
  C  C229  1  0.09392677  0.94736391  0.90177358  1
  C  C230  1  0.05460137  0.77920167  0.87679139  1
  H  H231  1  0.06570754  0.85098579  0.60842505  1
  H  H232  1  0.10815942  0.91087550  0.68620350  1
  C  C233  1  0.02037006  0.84799786  0.76405316  1
  H  H234  1  0.08037685  0.75839352  0.58062499  1
  C  C235  1  0.09205818  0.75100299  0.93012394  1
  C  C236  1  0.03732207  0.89298352  0.92435535  1
  C  C237  1  0.22486948  0.91626657  0.81289824  1
  C  C238  1  0.22771506  0.93918688  0.91943535  1
  H  H239  1  0.16988986  0.89689198  0.68926668  1
  C  C240  1  0.00802934  0.95137113  0.52124219  1
  H  H241  1  0.17903970  0.79011457  0.67895981  1
  C  C242  1  0.08118619  0.89696777  0.73923482  1
  C  C243  1  0.20593086  0.89705079  0.72057689  1
  C  C244  1  0.17901904  0.76390568  0.62433338  1
  O  O245  1  0.12200590  0.96471076  0.84805196  1
  O  O246  1  0.00959119  0.75690843  0.82331537  1
  H  H247  1  0.22295760  0.78267002  0.88491760  1
  C  C248  1  0.05423121  0.96835650  0.52428992  1
  H  H249  1  0.22850028  0.96558711  0.55872043  1
  H  H250  1  0.25558261  0.12863654  0.12914748  1
  C  C251  1  0.25663909  0.12929438  0.03323359  1
  H  H252  1  0.41766418  0.01350291  0.06864901  1
  H  H253  1  0.40305491  0.12507224  0.02653000  1
  H  H254  1  0.29294069  0.13797078  0.01131181  1
  O  O255  1  0.31206209  0.42456609  0.42961932  1
  C  C256  1  0.49862730  0.47414022  0.15656294  1
  H  H257  1  0.45607472  0.48979878  0.30555741  1
  H  H258  1  0.29427394  0.36650094  0.21466273  1
  C  C259  1  0.48994760  0.48891574  0.26789067  1
  H  H260  1  0.38159986  0.26777509  0.09675593  1
  H  H261  1  0.30306884  0.44532191  0.09745327  1
  C  C262  1  0.38198538  0.32948491  0.21552720  1
  C  C263  1  0.26044897  0.32014914  0.10296096  1
  C  C264  1  0.30755325  0.26183973  0.02929025  1
  C  C265  1  0.34534317  0.27856895  0.09040737  1
  C  C266  1  0.46112077  0.45766973  0.08075507  1
  Cu  Cu267  1  0.39477476  0.41092600  0.19821588  1
  C  C268  1  0.27420426  0.42207163  0.25168505  1
  C  C269  1  0.26690482  0.28614143  0.02812746  1
  C  C270  1  0.27405961  0.43104054  0.13193856  1
  C  C271  1  0.31322610  0.43336123  0.32032808  1
  C  C272  1  0.29646234  0.33718578  0.16225212  1
  O  O273  1  0.41886060  0.31508774  0.19680290  1
  O  O274  1  0.41971514  0.45588501  0.12982654  1
  O  O275  1  0.34782088  0.44729688  0.27023586  1
  C  C276  1  0.33827659  0.31586323  0.15522441  1
  O  O277  1  0.37865758  0.36474246  0.27782536  1
  H  H278  1  0.48956662  0.29749666  0.34259082  1
  O  O279  1  0.27043659  0.30380443  0.49892929  1
  C  C280  1  0.29563491  0.19639603  0.72691131  1
  H  H281  1  0.33274152  0.09875208  0.92247656  1
  C  C282  1  0.31309306  0.15751045  0.76147474  1
  C  C283  1  0.30183826  0.07998721  0.72764503  1
  C  C284  1  0.28438699  0.12423212  0.71964133  1
  O  O285  1  0.35152630  0.15419142  0.81984026  1
  C  C286  1  0.36239351  0.10899196  0.87266807  1
  H  H287  1  0.36772650  0.09003844  0.79419694  1
  H  H288  1  0.39319589  0.20601895  0.75478906  1
  C  C289  1  0.29039659  0.04702796  0.81060139  1
  C  C290  1  0.33641872  0.07196277  0.64296221  1
  C  C291  1  0.36585390  0.03862509  0.65228111  1
  C  C292  1  0.37180731  0.23573274  0.74640120  1
  C  C293  1  0.32282702  0.23516517  0.73912172  1
  C  C294  1  0.31740644  0.01158831  0.81100029  1
  H  H295  1  0.34661180  0.09571502  0.58041224  1
  H  H296  1  0.39640025  0.03518780  0.59321828  1
  H  H297  1  0.31293759  0.23362176  0.98268159  1
  C  C298  1  0.35617483  0.00821268  0.73624360  1
  C  C299  1  0.40474563  0.10455054  0.95317725  1
  H  H300  1  0.25715447  0.04889658  0.85564321  1
  C  C301  1  0.25365899  0.20356763  0.67331537  1
  H  H302  1  0.30421907  0.00312341  0.62104056  1
  H  H303  1  0.43636821  0.11029418  0.90568172  1
  H  H304  1  0.25037729  0.23389226  0.63561968  1
  H  H305  1  0.40438529  0.07122200  0.98576802  1
  C  C306  1  0.25225425  0.33493263  0.52478531  1
  O  O307  1  0.27648508  0.36540514  0.57814559  1
  C  C308  1  0.39261299  0.27449810  0.73810567  1
  O  O309  1  0.46890045  0.43834053  0.99614905  1
  C  C310  1  0.25715539  0.48586190  0.58623448  1
  C  C311  1  0.31916459  0.31074094  0.74295723  1
  Cu  Cu312  1  0.47784201  0.36854775  0.57113661  1
  C  C313  1  0.29671409  0.27359344  0.74770985  1
  Cu  Cu314  1  0.33024413  0.38166755  0.51489040  1
  H  H315  1  0.30256652  0.33902153  0.75446052  1
  H  H316  1  0.25981275  0.27001550  0.75920740  1
  C  C317  1  0.39235534  0.34814676  0.69033109  1
  H  H318  1  0.43208522  0.27243387  0.71463568  1
  H  H319  1  0.47678987  0.46076648  0.59769528  1
  O  O320  1  0.36913029  0.37931978  0.65693463  1
  O  O321  1  0.43612192  0.34793663  0.67569596  1
  C  C322  1  0.36842131  0.31212859  0.73214112  1
  H  H323  1  0.25436724  0.45613299  0.53713373  1
  O  O324  1  0.48279206  0.69444732  0.46643972  1
  H  H325  1  0.27109083  0.70533931  0.08586721  1
  H  H326  1  0.45964104  0.59234065  0.00226956  1
  H  H327  1  0.48997318  0.62009145  0.40194702  1
  C  C328  1  0.49607758  0.62804358  0.30903473  1
  C  C329  1  0.49360056  0.70176107  0.36355654  1
  H  H330  1  0.49965923  0.56608250  0.22849705  1
  C  C331  1  0.49756021  0.67040798  0.27456785  1
  H  H332  1  0.41460819  0.89416408  0.27125896  1
  H  H333  1  0.29356983  0.85447974  0.46896513  1
  C  C334  1  0.40176023  0.98662933  0.02649812  1
  C  C335  1  0.25226631  0.78221460  0.05629411  1
  C  C336  1  0.28939868  0.92243946  0.20794437  1
  H  H337  1  0.25342529  0.99039908  0.23704206  1
  C  C338  1  0.33521383  0.92172087  0.25587731  1
  H  H339  1  0.26515362  0.93848990  0.43872583  1
  C  C340  1  0.31943658  0.82101864  0.09760401  1
  H  H341  1  0.42968795  0.96294328  0.01041418  1
  C  C342  1  0.45263184  0.86422226  0.41104566  1
  C  C343  1  0.33280557  0.89431430  0.35110049  1
  C  C344  1  0.41350287  0.88186859  0.36003605  1
  O  O345  1  0.37030101  0.94245249  0.21260909  1
  H  H346  1  0.34936855  0.83312375  0.15411630  1
  C  C347  1  0.29341633  0.87376256  0.39229645  1
  H  H348  1  0.33932542  0.98961873  0.12127534  1
  H  H349  1  0.48636637  0.86809073  0.36999692  1
  H  H350  1  0.28158453  0.78970681  0.23481243  1
  C  C351  1  0.37288006  0.87880989  0.42205505  1
  C  C352  1  0.26646225  0.94567527  0.10618885  1
  H  H353  1  0.34358010  0.94153889  0.04995110  1
  C  C354  1  0.36317110  0.96599731  0.09642462  1
  C  C355  1  0.28384899  0.79749678  0.14332436  1
  H  H356  1  0.33160602  0.97707004  0.49597844  1
  C  C357  1  0.44246018  0.65087276  0.64675835  1
  O  O358  1  0.33722038  0.60275295  0.72643533  1
  C  C359  1  0.43114845  0.68807556  0.70379142  1
  H  H360  1  0.41703535  0.63347246  0.58976398  1
  C  C361  1  0.38345934  0.70215054  0.69280918  1
  Cu  Cu362  1  0.30701646  0.65179200  0.67986812  1
  O  O363  1  0.35468163  0.68159057  0.62468427  1
  C  C364  1  0.34064423  0.57065947  0.65206645  1
  C  C365  1  0.46196877  0.70827277  0.77618968  1
  C  C366  1  0.40831997  0.60821330  0.87147791  1
  C  C367  1  0.29915671  0.54463585  0.65473736  1
  O  O368  1  0.37294584  0.56569107  0.59280504  1
  O  O369  1  0.49226081  0.57740693  0.85308728  1
  H  H370  1  0.47792746  0.63684072  0.90889764  1
  H  H371  1  0.40702253  0.61614787  0.77466463  1
  H  H372  1  0.39009182  0.57742801  0.88469026  1
  O  O373  1  0.37021727  0.73345913  0.74025790  1
  H  H374  1  0.44861061  0.73587951  0.82730885  1
  C  C375  1  0.45797260  0.60602950  0.91234451  1
  H  H376  1  0.39219324  0.63319098  0.92427405  1
  C  C377  1  0.26439645  0.55323827  0.73527823  1
  C  C378  1  0.48681812  0.63653458  0.65672724  1
  H  H379  1  0.49426371  0.60690400  0.61709727  1
  C  C380  1  0.29472836  0.51116610  0.57769799  1
  Cu  Cu381  1  0.48284045  0.74112326  0.55940689  1
  H  H382  1  0.32282295  0.50264205  0.51494495  1
  H  H383  1  0.26254452  0.58066467  0.79716357  1
  H  H384  1  0.47956653  0.51301212  0.76439334  1
  C  C385  1  0.44949889  0.84303004  0.51506828  1
  Cu  Cu386  1  0.33666697  0.90377387  0.75183069  1
  H  H387  1  0.42928542  0.90147801  0.65867522  1
  C  C388  1  0.30057072  0.98081327  0.54788245  1
  C  C389  1  0.40907887  0.83591697  0.57644234  1
  H  H390  1  0.49146142  0.94691315  0.53739081  1
  H  H391  1  0.33676845  0.85627945  0.57609275  1
  C  C392  1  0.37120798  0.85543837  0.52997200  1
  C  C393  1  0.36622341  0.84844859  0.93781413  1
  H  H394  1  0.29392892  0.82118439  0.80461186  1
  C  C395  1  0.38455594  0.97178361  0.74193877  1
  O  O396  1  0.41981758  0.97079143  0.67654166  1
  C  C397  1  0.45022393  0.92907769  0.68490212  1
  C  C398  1  0.28966411  0.81352292  0.89748699  1
  C  C399  1  0.48890154  0.82009080  0.55673302  1
  O  O400  1  0.29031562  0.87488095  0.70501681  1
  H  H401  1  0.30794341  0.98608522  0.87224943  1
  O  O402  1  0.36846659  0.85705008  0.82536406  1
  H  H403  1  0.45611653  0.92402549  0.78043347  1
  H  H404  1  0.40832731  0.81653011  0.65801167  1
  O  O405  1  0.37375503  0.94234666  0.80953052  1
  O  O406  1  0.48594671  0.79269203  0.63606607  1
  C  C407  1  0.49663880  0.92976295  0.62035920  1
  C  C408  1  0.25136524  0.79212659  0.93823491  1
  C  C409  1  0.25269048  0.88961497  0.73366573  1
  H  H410  1  0.39306464  0.99453332  0.93707386  1
  H  H411  1  0.28174533  0.89755929  0.97141303  1
  C  C412  1  0.26331776  0.96020166  0.51566617  1
  C  C413  1  0.26036217  0.92525911  0.99423684  1
  O  O414  1  0.39388010  0.86327747  0.99938518  1
  C  C415  1  0.32393813  0.82589630  0.97640648  1
  C  C416  1  0.68868084  0.12170862  0.39129632  1
  H  H417  1  0.70929198  0.09332601  0.36983520  1
  H  H418  1  0.65313730  0.11238308  0.40560362  1
  H  H419  1  0.69363793  0.14604536  0.32060180  1
  H  H420  1  0.61156856  0.49437154  0.13921105  1
  H  H421  1  0.67999009  0.25052533  0.42404293  1
  O  O422  1  0.68313806  0.38089472  0.12150503  1
  O  O423  1  0.51174689  0.40538535  0.49040607  1
  H  H424  1  0.59793928  0.26367843  0.34901990  1
  C  C425  1  0.57834330  0.49077961  0.18014658  1
  H  H426  1  0.70129123  0.33671875  0.42934141  1
  C  C427  1  0.54388106  0.47373820  0.11052026  1
  C  C428  1  0.68562859  0.36644659  0.21646875  1
  O  O429  1  0.52169317  0.28852064  0.36045174  1
  C  C430  1  0.72902104  0.49440709  0.46888423  1
  C  C431  1  0.65168604  0.25988549  0.48057970  1
  O  O432  1  0.65093911  0.36863818  0.28880918  1
  Cu  Cu433  1  0.62630182  0.41443171  0.36308548  1
  O  O434  1  0.58770498  0.40279939  0.48427695  1
  C  C435  1  0.73314604  0.33437670  0.37366902  1
  C  C436  1  0.72946513  0.34950276  0.26035191  1
  H  H437  1  0.73747924  0.46685623  0.30159968  1
  O  O438  1  0.65832335  0.46180327  0.31721374  1
  C  C439  1  0.60774949  0.26754399  0.43815810  1
  C  C440  1  0.52968452  0.29511988  0.47305408  1
  C  C441  1  0.73575250  0.49669747  0.04885765  1
  C  C442  1  0.65160649  0.49344172  0.37807780  1
  H  H443  1  0.54857552  0.46506124  0.01916104  1
  C  C444  1  0.71415596  0.20091428  0.62441417  1
  H  H445  1  0.69643544  0.11626864  0.58105884  1
  H  H446  1  0.71586646  0.12465422  0.81307618  1
  C  C447  1  0.70144644  0.24206088  0.66279151  1
  O  O448  1  0.69160587  0.18227398  0.54464966  1
  C  C449  1  0.70579141  0.13744602  0.50999509  1
  H  H450  1  0.73741649  0.04849479  0.77846779  1
  C  C451  1  0.74571163  0.11457082  0.75851872  1
  H  H452  1  0.74336338  0.14144934  0.51692758  1
  H  H453  1  0.63272654  0.28057625  0.77781008  1
  H  H454  1  0.71180361  0.29847699  0.75683167  1
  C  C455  1  0.74988506  0.46331739  0.96319305  1
  O  O456  1  0.50132718  0.31075564  0.53956200  1
  C  C457  1  0.50973824  0.47369280  0.63498657  1
  H  H458  1  0.55992164  0.30684169  0.68971673  1
  C  C459  1  0.59374056  0.47269291  0.63014023  1
  C  C460  1  0.72478245  0.42611448  0.94257156  1
  C  C461  1  0.58554676  0.28990105  0.63839240  1
  C  C462  1  0.62573968  0.27469904  0.68314998  1
  C  C463  1  0.55176158  0.45417991  0.59611201  1
  H  H464  1  0.67781501  0.37008338  0.64174463  1
  C  C465  1  0.57446794  0.28512011  0.51792455  1
  C  C466  1  0.72470322  0.26774222  0.74260280  1
  H  H467  1  0.68071821  0.42458799  0.69825770  1
  H  H468  1  0.70995441  0.37322863  0.84261957  1
  H  H469  1  0.60593989  0.41320521  0.80261385  1
  H  H470  1  0.60026901  0.36122672  0.73332184  1
  C  C471  1  0.65971354  0.25880562  0.60414008  1
  C  C472  1  0.66271530  0.39512926  0.69683129  1
  H  H473  1  0.67629009  0.48853653  0.93726026  1
  C  C474  1  0.62281850  0.38843460  0.75035179  1
  H  H475  1  0.62612157  0.46081833  0.59452126  1
  C  C476  1  0.73488791  0.39850318  0.85588890  1
  C  C477  1  0.55020306  0.41829008  0.52095175  1
  H  H478  1  0.69110784  0.42291903  0.98789638  1
  H  H479  1  0.67328630  0.58431829  0.18947978  1
  C  C480  1  0.69330675  0.56270964  0.14695230  1
  H  H481  1  0.59340844  0.58283973  0.16795493  1
  C  C482  1  0.52131727  0.61279350  0.10830091  1
  C  C483  1  0.61043228  0.51843028  0.37213296  1
  C  C484  1  0.59986205  0.55185048  0.44056938  1
  C  C485  1  0.68267979  0.51256944  0.45998781  1
  C  C486  1  0.62675117  0.69826825  0.11572063  1
  H  H487  1  0.60957784  0.67393469  0.16879893  1
  O  O488  1  0.62977975  0.69895430  0.41296558  1
  C  C489  1  0.72090904  0.73140624  0.42039814  1
  H  H490  1  0.56693019  0.56839995  0.43383996  1
  H  H491  1  0.71464090  0.63162339  0.21362176  1
  C  C492  1  0.52391729  0.65536307  0.08076415  1
  C  C493  1  0.57102249  0.50621597  0.29396608  1
  C  C494  1  0.50340089  0.59978450  0.21830502  1
  C  C495  1  0.50977105  0.68420073  0.16449939  1
  C  C496  1  0.63490489  0.73418303  0.38256279  1
  H  H497  1  0.51686278  0.51125086  0.42356548  1
  C  C498  1  0.73775039  0.55185690  0.17808468  1
  O  O499  1  0.50675628  0.73804771  0.33153339  1
  H  H500  1  0.51399566  0.71725936  0.14095880  1
  H  H501  1  0.65923367  0.70264788  0.16487912  1
  H  H502  1  0.60655900  0.72818783  0.12295532  1
  C  C503  1  0.74533782  0.62401329  0.26411492  1
  H  H504  1  0.72018771  0.70031309  0.46033599  1
  C  C505  1  0.66930470  0.54152831  0.05655425  1
  C  C506  1  0.58520663  0.57177892  0.08098729  1
  C  C507  1  0.52649543  0.50357458  0.33352291  1
  H  H508  1  0.54094196  0.66392075  0.00335593  1
  C  C509  1  0.54722487  0.58551890  0.02044332  1
  C  C510  1  0.69300672  0.50694979  0.00792606  1
  C  C511  1  0.62051727  0.54813869  0.02033105  1
  C  C512  1  0.72148564  0.81809047  0.35331004  1
  Cu  Cu513  1  0.54425042  0.77431337  0.42758560  1
  C  C514  1  0.68119125  0.75364785  0.38360086  1
  C  C515  1  0.68023200  0.79601665  0.36080832  1
  O  O516  1  0.59972081  0.75640222  0.35607014  1
  O  O517  1  0.52565613  0.82189287  0.49698254  1
  H  H518  1  0.64563978  0.80816903  0.33247395  1
  H  H519  1  0.72034878  0.85050839  0.31867203  1
  C  C520  1  0.62043349  0.60135774  0.60101419  1
  C  C521  1  0.65526089  0.61581537  0.67930943  1
  C  C522  1  0.57817219  0.62118703  0.61702682  1
  C  C523  1  0.64411948  0.64385563  0.76673550  1
  C  C524  1  0.60006825  0.65955554  0.79787137  1
  C  C525  1  0.68862029  0.64779487  0.83204295  1
  C  C526  1  0.56834919  0.64703883  0.71074588  1
  H  H527  1  0.69188872  0.60696716  0.67286198  1
  C  C528  1  0.51945413  0.65794546  0.72787619  1
  H  H529  1  0.53144846  0.70933063  0.84697303  1
  C  C530  1  0.71531279  0.68476573  0.81722806  1
  H  H531  1  0.70208649  0.71111960  0.76760448  1
  C  C532  1  0.60804360  0.53277968  0.91115996  1
  C  C533  1  0.56395676  0.54355101  0.86641988  1
  C  C534  1  0.52956333  0.57004249  0.91356835  1
  H  H535  1  0.68770052  0.58731097  0.92467157  1
  C  C536  1  0.70818112  0.61589057  0.90313475  1
  O  O537  1  0.59202304  0.67875404  0.89493613  1
  C  C538  1  0.55396664  0.51936945  0.75858470  1
  H  H539  1  0.65597610  0.70872814  0.94603114  1
  H  H540  1  0.62777648  0.52777053  0.70895013  1
  H  H541  1  0.63045041  0.50969623  0.87066790  1
  C  C542  1  0.50675784  0.69424745  0.79122951  1
  C  C543  1  0.59673622  0.50884564  0.70028454  1
  H  H544  1  0.70171790  0.56380394  0.57767238  1
  H  H545  1  0.64997590  0.65454215  0.97811291  1
  H  H546  1  0.55002875  0.61295767  0.56030187  1
  C  C547  1  0.51008359  0.50300076  0.71990924  1
  C  C548  1  0.63240925  0.68451333  0.98706152  1
  C  C549  1  0.63288676  0.56764410  0.51941092  1
  C  C550  1  0.74873581  0.50250719  0.58007054  1
  C  C551  1  0.74582827  0.62103394  0.97569353  1
  H  H552  1  0.72764449  0.51518826  0.64617021  1
  C  C553  1  0.67655335  0.54801655  0.52601811  1
  H  H554  1  0.50660541  0.89775525  0.60174682  1
  H  H555  1  0.52415565  0.94676695  0.67050647  1
  C  C556  1  0.84881948  0.13681963  0.29775439  1
  C  C557  1  0.87127270  0.17550214  0.27912455  1
  C  C558  1  0.86251994  0.06294353  0.31346871  1
  C  C559  1  0.87834070  0.10262424  0.31208654  1
  C  C560  1  0.84581524  0.19778331  0.20344889  1
  C  C561  1  0.89559938  0.03114494  0.30082304  1
  H  H562  1  0.81371946  0.18368041  0.18012923  1
  H  H563  1  0.91564728  0.10949250  0.31282524  1
  H  H564  1  0.90650353  0.18160299  0.30434192  1
  C  C565  1  0.79751670  0.12968701  0.30070413  1
  H  H566  1  0.97379795  0.19589808  0.39369315  1
  Cu  Cu567  1  0.79893348  0.20859909  0.39889469  1
  H  H568  1  0.82390051  0.05649706  0.30869983  1
  O  O569  1  0.97829306  0.19424380  0.16698901  1
  C  C570  1  0.94619990  0.03454475  0.30948807  1
  O  O571  1  0.77627309  0.09876684  0.28647186  1
  O  O572  1  0.96592078  0.06591490  0.32457473  1
  C  C573  1  0.86121396  0.23658755  0.15714396  1
  O  O574  1  0.77410392  0.16519568  0.32518133  1
  C  C575  1  0.97850577  0.20464771  0.06584351  1
  C  C576  1  0.95677107  0.18850158  0.47764284  1
  H  H577  1  0.77916511  0.22123412  0.01954019  1
  C  C578  1  0.95726007  0.49689175  0.12901858  1
  H  H579  1  0.92245034  0.25948362  0.26129700  1
  H  H580  1  0.98158583  0.26360441  0.45226825  1
  O  O581  1  0.89141138  0.43764848  0.47962271  1
  C  C582  1  0.86078356  0.26914578  0.45213249  1
  C  C583  1  0.97919535  0.37541901  0.29202313  1
  O  O584  1  0.82404419  0.25151396  0.48224228  1
  H  H585  1  0.76289706  0.36026277  0.09577551  1
  H  H586  1  0.94664724  0.38605079  0.25689819  1
  C  C587  1  0.90725084  0.25515898  0.46467393  1
  C  C588  1  0.89798916  0.26214562  0.18817538  1
  C  C589  1  0.81456233  0.32160773  0.34460179  1
  H  H590  1  0.78932319  0.44428457  0.12990861  1
  H  H591  1  0.81519484  0.43539693  0.35356604  1
  C  C592  1  0.86869203  0.29237241  0.03020224  1
  H  H593  1  0.82729851  0.47439425  0.03771879  1
  C  C594  1  0.94383770  0.31510157  0.38320972  1
  C  C595  1  0.94832339  0.27675725  0.43371934  1
  H  H596  1  0.83810512  0.33893585  0.17296747  1
  C  C597  1  0.84319778  0.25655820  0.05548837  1
  C  C598  1  0.86090711  0.30705380  0.38186809  1
  C  C599  1  0.86092457  0.43440656  0.16986273  1
  H  H600  1  0.85336251  0.42322470  0.26118367  1
  C  C601  1  0.89955658  0.33053892  0.35661939  1
  C  C602  1  0.82211085  0.46244477  0.12657929  1
  C  C603  1  0.80917682  0.33856130  0.23089715  1
  O  O604  1  0.90308286  0.29364922  0.12407831  1
  H  H605  1  0.95211401  0.43021796  0.09130495  1
  H  H606  1  0.89431921  0.45138755  0.17818685  1
  C  C607  1  0.98629378  0.33954525  0.35726818  1
  H  H608  1  0.86565658  0.40651509  0.10828242  1
  H  H609  1  0.89452142  0.35884295  0.30232817  1
  C  C610  1  0.77499068  0.31995343  0.41598916  1
  C  C611  1  0.96902884  0.45477056  0.14121730  1
  C  C612  1  0.76810361  0.34913124  0.18514813  1
  C  C613  1  0.79553554  0.45478451  0.41526629  1
  C  C614  1  0.75445023  0.47250628  0.38161896  1
  C  C615  1  0.78738866  0.06344037  0.64229312  1
  C  C616  1  0.90599157  0.16763301  0.68134995  1
  H  H617  1  0.88923010  0.15948295  0.76687368  1
  C  C618  1  0.89668353  0.20326278  0.62209183  1
  C  C619  1  0.81154090  0.09346208  0.58197136  1
  C  C620  1  0.94286261  0.14325573  0.64043920  1
  C  C621  1  0.80481740  0.13513204  0.61133578  1
  O  O622  1  0.93752853  0.10389789  0.81672886  1
  H  H623  1  0.80707284  0.19503134  0.81378017  1
  C  C624  1  0.78195502  0.21190307  0.76565999  1
  C  C625  1  0.95398031  0.10799675  0.71447083  1
  Cu  Cu626  1  0.96293192  0.13017657  0.94447933  1
  H  H627  1  0.87017306  0.22672972  0.65149544  1
  O  O628  1  0.95398915  0.18215451  0.98907494  1
  C  C629  1  0.96690988  0.15276289  0.53743793  1
  C  C630  1  0.76950828  0.14448387  0.69132496  1
  C  C631  1  0.92026369  0.21400771  0.51649770  1
  O  O632  1  0.98743788  0.08743472  0.67863854  1
  C  C633  1  0.75554154  0.19003201  0.68436901  1
  C  C634  1  0.75646309  0.07287921  0.73278133  1
  H  H635  1  0.82837885  0.15857009  0.57888250  1
  C  C636  1  0.79284686  0.01792178  0.61661774  1
  O  O637  1  0.97419273  0.00932245  0.61157708  1
  O  O638  1  0.82177352  0.00788535  0.53519025  1
  H  H639  1  0.83952851  0.08526173  0.52552034  1
  C  C640  1  0.80265274  0.24634539  0.99448467  1
  H  H641  1  0.99173495  0.23848781  0.86278284  1
  H  H642  1  0.99223792  0.12998885  0.51263592  1
  C  C643  1  0.81846580  0.46778490  0.51625150  1
  O  O644  1  0.75909221  0.34705591  0.65242588  1
  H  H645  1  0.81084710  0.49764532  0.90352334  1
  H  H646  1  0.77621481  0.30777066  0.50034546  1
  O  O647  1  0.88002811  0.47595092  0.63727360  1
  C  C648  1  0.76424827  0.25251827  0.79812929  1
  C  C649  1  0.77318515  0.40398596  0.78569541  1
  C  C650  1  0.96673737  0.38466426  0.96587374  1
  O  O651  1  0.82127076  0.38418978  0.63306821  1
  Cu  Cu652  1  0.93324325  0.40588245  0.56280184  1
  O  O653  1  0.92982433  0.32772917  0.69849848  1
  H  H654  1  0.81246625  0.32434178  0.79360325  1
  H  H655  1  0.96470723  0.25088505  0.66830305  1
  C  C656  1  0.87720684  0.39212040  0.87095360  1
  O  O657  1  0.97313666  0.37665074  0.64755932  1
  C  C658  1  0.85981806  0.31925284  0.93872457  1
  C  C659  1  0.96902208  0.33751028  0.66769138  1
  C  C660  1  0.86540288  0.45818368  0.54528088  1
  C  C661  1  0.82038700  0.30615269  0.87258053  1
  C  C662  1  0.90434123  0.42697929  0.86822071  1
  H  H663  1  0.82833934  0.44191576  0.74872318  1
  Cu  Cu664  1  0.87688096  0.35534016  0.65339543  1
  C  C665  1  0.94910872  0.42101229  0.90748081  1
  C  C666  1  0.78880253  0.46817941  0.89146338  1
  C  C667  1  0.98317765  0.45436209  0.90984937  1
  C  C668  1  0.79926237  0.43977441  0.80430719  1
  H  H669  1  0.93987407  0.49541207  0.54618353  1
  H  H670  1  0.84172723  0.39170883  0.83441329  1
  C  C671  1  0.89174595  0.35497791  0.92658723  1
  H  H672  1  0.89391655  0.45712329  0.83190770  1
  C  C673  1  0.93913453  0.35038614  0.96085671  1
  C  C674  1  0.79462375  0.49298653  0.59346969  1
  C  C675  1  0.79624083  0.26949309  0.89445612  1
  O  O676  1  0.96537938  0.49482178  0.85665151  1
  C  C677  1  0.78127218  0.37648178  0.68266248  1
  C  C678  1  0.99866235  0.26535429  0.65345574  1
  H  H679  1  0.95224538  0.31878695  0.98010128  1
  C  C680  1  0.81785248  0.64598105  0.34444918  1
  C  C681  1  0.82563934  0.60195517  0.36534464  1
  O  O682  1  0.93697307  0.57875250  0.08763380  1
  C  C683  1  0.84814454  0.68027551  0.36300797  1
  O  O684  1  0.83767409  0.71474939  0.31520588  1
  C  C685  1  0.79842321  0.56948088  0.32937274  1
  H  H686  1  0.80509217  0.53725203  0.34951225  1
  O  O687  1  0.93622135  0.66825923  0.19124021  1
  C  C688  1  0.94978193  0.70669877  0.18386458  1
  C  C689  1  0.77420835  0.65507584  0.30297634  1
  H  H690  1  0.85664131  0.59462329  0.40973854  1
  Cu  Cu691  1  0.93627986  0.63747046  0.32215289  1
  O  O692  1  0.88837808  0.67323850  0.39646371  1
  Cu  Cu693  1  0.85693649  0.72478990  0.16327116  1
  C  C694  1  0.96045769  0.57026635  0.17368639  1
  O  O695  1  0.97372160  0.59919413  0.24006116  1
  C  C696  1  0.76136301  0.51552732  0.13986606  1
  O  O697  1  0.82749788  0.63427172  0.08774003  1
  C  C698  1  0.97658578  0.52803609  0.19752577  1
  O  O699  1  0.92228726  0.73295578  0.15149364  1
  Cu  Cu700  1  0.88157087  0.60889454  0.07445783  1
  H  H701  1  0.92993715  0.50681601  0.07271668  1
  H  H702  1  0.76541115  0.68821194  0.28148029  1
  O  O703  1  0.79934045  0.50239236  0.18785959  1
  C  C704  1  0.76041642  0.58161917  0.25877050  1
  O  O705  1  0.82859213  0.69998469  0.02984073  1
  C  C706  1  0.81139180  0.66299562  0.02621888  1
  C  C707  1  0.99863822  0.71633346  0.20041269  1
  H  H708  1  0.75745068  0.59634135  0.03885025  1
  H  H709  1  0.79177105  0.74248819  0.46135144  1
  O  O710  1  0.93674480  0.60935082  0.46740128  1
  C  C711  1  0.93744251  0.57225297  0.49100336  1
  H  H712  1  0.92351147  0.95322134  0.35871561  1
  C  C713  1  0.83817896  0.80635369  0.49758667  1
  H  H714  1  0.83328252  0.99476938  0.25978214  1
  C  C715  1  0.76028982  0.75504878  0.42401648  1
  C  C716  1  0.85391282  0.88306156  0.39128832  1
  C  C717  1  0.85618478  0.92179380  0.32406032  1
  C  C718  1  0.76231141  0.79838844  0.39057885  1
  C  C719  1  0.99977819  0.91190528  0.47240545  1
  H  H720  1  0.96451000  0.89977328  0.46236254  1
  C  C721  1  0.81414702  0.91919372  0.26777250  1
  C  C722  1  0.86908823  0.99367657  0.28914070  1
  H  H723  1  0.99047645  0.78333829  0.16574504  1
  H  H724  1  0.91456335  0.89016126  0.49525774  1
  C  C725  1  0.88500506  0.86946148  0.47327967  1
  C  C726  1  0.80653809  0.82231212  0.41701575  1
  H  H727  1  0.95114982  0.98236194  0.25744968  1
  H  H728  1  0.79610598  0.94393491  0.20923697  1
  C  C729  1  0.88734524  0.95637530  0.32625636  1
  C  C730  1  0.81561352  0.85895791  0.36209410  1
  O  O731  1  0.97491363  0.99833576  0.29996220  1
  O  O732  1  0.79173482  0.88467771  0.27384107  1
  C  C733  1  0.90964761  0.69170778  0.66267588  1
  C  C734  1  0.89189576  0.65251179  0.68391954  1
  H  H735  1  0.86947911  0.63428046  0.62425115  1
  O  O736  1  0.85252641  0.57714267  0.74277826  1
  C  C737  1  0.89983679  0.63403010  0.79758237  1
  C  C738  1  0.87526956  0.59691603  0.82352951  1
  C  C739  1  0.94223998  0.69419829  0.86586985  1
  C  C740  1  0.92378976  0.65488018  0.88690463  1
  C  C741  1  0.93170477  0.71172724  0.75591257  1
  H  H742  1  0.96283801  0.71179296  0.92678599  1
  Cu  Cu743  1  0.88109314  0.53708981  0.65593474  1
  H  H744  1  0.77772503  0.71701242  0.86354420  1
  H  H745  1  0.90305054  0.70898284  0.58342021  1
  H  H746  1  0.96473742  0.58652071  0.89210792  1
  C  C747  1  0.77042716  0.65790487  0.95503627  1
  O  O748  1  0.87666827  0.58218122  0.92431630  1
  C  C749  1  0.75587420  0.68955151  0.87838367  1
  H  H750  1  0.98324593  0.57755373  0.73904245  1
  H  H751  1  0.80966058  0.50164676  0.67833465  1
  C  C752  1  0.97588504  0.50877043  0.55168686  1
  C  C753  1  0.98040726  0.55102188  0.52156257  1
  C  C754  1  0.99818745  0.52590039  0.85937558  1
  H  H755  1  0.92724670  0.64098910  0.96976820  1
  C  C756  1  0.99222674  0.57307744  0.83119524  1
  O  O757  1  0.90046577  0.55171679  0.50287180  1
  C  C758  1  0.94116479  0.75542942  0.71993120  1
  O  O759  1  0.76973739  0.99100251  0.66060687  1
  H  H760  1  0.88110493  0.75451454  0.61681912  1
  C  C761  1  0.95263766  0.83633607  0.63842163  1
  H  H762  1  0.95836684  0.86799285  0.61521393  1
  C  C763  1  0.90978734  0.77295194  0.64370996  1
  C  C764  1  0.91377270  0.81365367  0.60071833  1
  C  C765  1  0.98113847  0.77679379  0.76356257  1
  H  H766  1  0.83023309  0.77712070  0.53983718  1
  H  H767  1  0.98191510  0.84882878  0.93042514  1
  C  C768  1  0.96955041  0.97365703  0.57020864  1
  O  O769  1  0.93031428  0.95585755  0.56516983  1
  Cu  Cu770  1  0.87790136  0.98233562  0.54686814  1
  H  H771  1  0.99310172  0.75887706  0.54314272  1
  C  C772  1  0.87810253  0.82937978  0.51734399  1
  C  C773  1  0.98272967  0.81836802  0.71518201  1
