# generated using pymatgen
data_CuH15C22O5
_symmetry_space_group_name_H-M   'P 1'
_cell_length_a   29.39807092
_cell_length_b   29.84259800
_cell_length_c   10.35989178
_cell_angle_alpha   90.00000000
_cell_angle_beta   90.00000000
_cell_angle_gamma   90.00000000
_symmetry_Int_Tables_number   1
_chemical_formula_structural   CuH15C22O5
_chemical_formula_sum   'Cu18 H270 C396 O90'
_cell_volume   9088.88651241
_cell_formula_units_Z   18
loop_
 _symmetry_equiv_pos_site_id
 _symmetry_equiv_pos_as_xyz
  1  'x, y, z'
loop_
 _atom_site_type_symbol
 _atom_site_label
 _atom_site_symmetry_multiplicity
 _atom_site_fract_x
 _atom_site_fract_y
 _atom_site_fract_z
 _atom_site_occupancy
  H  H0  1  0.18125814  0.15328011  0.36177556  1
  H  H1  1  0.02942150  0.03812652  0.34044895  1
  H  H2  1  0.18987138  0.06589217  0.27127705  1
  C  C3  1  0.05199666  0.01061251  0.36099608  1
  C  C4  1  0.21121583  0.16104540  0.30529479  1
  O  O5  1  0.22724548  0.20024004  0.31103727  1
  C  C6  1  0.22309612  0.07988307  0.23983040  1
  C  C7  1  0.23532902  0.12580595  0.24545907  1
  H  H8  1  0.04558888  0.09865925  0.08553275  1
  H  H9  1  0.00452870  0.05294909  0.06850919  1
  C  C10  1  0.01283819  0.08734214  0.03308989  1
  O  O11  1  0.01360893  0.24392803  0.49315992  1
  C  C12  1  0.07129693  0.01122364  0.48045795  1
  H  H13  1  0.01895192  0.24974036  0.10556329  1
  C  C14  1  0.01631309  0.25025050  0.37313049  1
  C  C15  1  0.24875663  0.49454021  0.16007182  1
  H  H16  1  0.17449063  0.48896110  0.19106572  1
  C  C17  1  0.06021834  0.36163329  0.05420139  1
  C  C18  1  0.03081296  0.39751189  0.09641339  1
  Cu  Cu19  1  0.05205931  0.33971468  0.35110522  1
  H  H20  1  0.24001289  0.34180635  0.41478257  1
  H  H21  1  0.24115602  0.29274184  0.08029916  1
  C  C22  1  0.15134115  0.36543313  0.32249830  1
  H  H23  1  0.09868338  0.43247579  0.35041438  1
  H  H24  1  0.24096079  0.26592377  0.32505691  1
  O  O25  1  0.04504086  0.27659108  0.31923180  1
  Cu  Cu26  1  0.21515297  0.42767503  0.42489171  1
  C  C27  1  0.11255197  0.37538833  0.23049848  1
  C  C28  1  0.09950402  0.34942666  0.12243231  1
  O  O29  1  0.22842611  0.42496054  0.23748136  1
  C  C30  1  0.08567326  0.41343914  0.26972528  1
  O  O31  1  0.16388490  0.39186559  0.41771282  1
  O  O32  1  0.16983424  0.32973842  0.31168871  1
  H  H33  1  0.11849113  0.31979998  0.08892994  1
  H  H34  1  0.02697126  0.45034386  0.24865519  1
  C  C35  1  0.04652670  0.42499633  0.20587765  1
  C  C36  1  0.24797521  0.36044147  0.00593708  1
  C  C37  1  0.05549823  0.16408517  0.77532505  1
  C  C38  1  0.09861658  0.13816448  0.78419922  1
  C  C39  1  0.05951446  0.21005405  0.80674967  1
  Cu  Cu40  1  0.18135589  0.18500724  0.73621138  1
  O  O41  1  0.09786796  0.09702655  0.76434928  1
  Cu  Cu42  1  0.14573580  0.05805588  0.77034804  1
  O  O43  1  0.13472782  0.15632654  0.82350118  1
  H  H44  1  0.09223423  0.22702029  0.82728859  1
  C  C45  1  0.02359208  0.24043825  0.79786096  1
  O  O46  1  0.20216149  0.02782389  0.78264483  1
  O  O47  1  0.23275369  0.17102761  0.65403266  1
  H  H48  1  0.06808958  0.03897751  0.55079287  1
  C  C49  1  0.01278657  0.14731481  0.73915610  1
  O  O50  1  0.17359491  0.24383505  0.78561581  1
  H  H51  1  0.00534291  0.11063532  0.71671501  1
  Cu  Cu52  1  0.23795801  0.17549216  0.93362099  1
  O  O53  1  0.20475617  0.22899144  0.97620212  1
  O  O54  1  0.10867932  0.00584236  0.71501940  1
  H  H55  1  0.02230586  0.08087871  0.92956468  1
  C  C56  1  0.21232799  0.37817119  0.79587557  1
  C  C57  1  0.19397450  0.25538148  0.88652303  1
  C  C58  1  0.02697474  0.42506823  0.77296181  1
  C  C59  1  0.09594505  0.46724060  0.64093511  1
  O  O60  1  0.19614032  0.46854714  0.54790367  1
  C  C61  1  0.20923552  0.30307600  0.88866467  1
  H  H62  1  0.17881537  0.32181851  0.70931332  1
  C  C63  1  0.07338590  0.49147323  0.74429201  1
  O  O64  1  0.06386029  0.34008731  0.53381568  1
  O  O65  1  0.01241420  0.33364909  0.68260961  1
  C  C66  1  0.04040871  0.35794057  0.62613208  1
  H  H67  1  0.02190307  0.48277255  0.90120198  1
  C  C68  1  0.21869169  0.46833881  0.90030871  1
  C  C69  1  0.23921027  0.39202151  0.90190481  1
  H  H70  1  0.12550281  0.48797559  0.59923031  1
  H  H71  1  0.14427002  0.47698938  0.80772250  1
  C  C72  1  0.05055519  0.40302320  0.67032283  1
  C  C73  1  0.08678356  0.42424248  0.60176120  1
  H  H74  1  0.02688528  0.27683557  0.81295572  1
  H  H75  1  0.18632458  0.45590147  0.94477082  1
  H  H76  1  0.20630878  0.39924912  0.71132150  1
  C  C77  1  0.19904945  0.33429983  0.78922574  1
  C  C78  1  0.03772624  0.46847019  0.80670633  1
  H  H79  1  0.10742983  0.40645008  0.52519117  1
  H  H80  1  0.00162140  0.40672106  0.82914022  1
  C  C81  1  0.23251283  0.31632209  0.99860436  1
  H  H82  1  0.04595536  0.34154125  0.97997071  1
  O  O83  1  0.17252479  0.63748798  0.29499853  1
  C  C84  1  0.20297562  0.66176700  0.22941126  1
  C  C85  1  0.20476131  0.70884655  0.21934119  1
  H  H86  1  0.11968710  0.68077291  0.32370128  1
  C  C87  1  0.19900315  0.55774203  0.18035564  1
  H  H88  1  0.16425330  0.57263173  0.19238587  1
  C  C89  1  0.23580822  0.63639010  0.15840971  1
  O  O90  1  0.03164920  0.64065247  0.33023316  1
  C  C91  1  0.20347841  0.51156090  0.18150228  1
  C  C92  1  0.14224376  0.66217918  0.38644256  1
  H  H93  1  0.21250544  0.59628111  0.41770011  1
  H  H94  1  0.16373510  0.69047196  0.42390209  1
  C  C95  1  0.16608688  0.73745121  0.26971918  1
  H  H96  1  0.12190811  0.71178066  0.11759020  1
  H  H97  1  0.09396678  0.60893524  0.45347541  1
  C  C98  1  0.12518307  0.73684687  0.19602160  1
  C  C99  1  0.24077933  0.73106237  0.15416968  1
  C  C100  1  0.23800521  0.58675443  0.15520093  1
  H  H101  1  0.17526783  0.65158350  0.01400627  1
  H  H102  1  0.01113400  0.57618891  0.21359213  1
  C  C103  1  0.24367290  0.57601917  0.44610140  1
  H  H104  1  0.04225320  0.68369614  0.12262205  1
  H  H105  1  0.18673112  0.72964042  0.01519093  1
  C  C106  1  0.01048378  0.70074604  0.13687929  1
  C  C107  1  0.11664790  0.63608703  0.49364264  1
  C  C108  1  0.24297124  0.53086568  0.49684255  1
  H  H109  1  0.02890159  0.57770654  0.04481576  1
  H  H110  1  0.07776767  0.90083655  0.00512004  1
  H  H111  1  0.09859523  0.90901530  0.24671257  1
  H  H112  1  0.20510194  0.76682426  0.43176400  1
  C  C113  1  0.17193005  0.76371690  0.38553658  1
  O  O114  1  0.17000902  0.96780099  0.15073960  1
  C  C115  1  0.03830953  0.97797109  0.15243899  1
  C  C116  1  0.20663536  0.98442749  0.14985141  1
  C  C117  1  0.07044638  0.98052273  0.04374853  1
  H  H118  1  0.10683991  0.97729697  0.04999496  1
  C  C119  1  0.13214344  0.78395025  0.43471829  1
  C  C120  1  0.08850384  0.76147891  0.23663994  1
  H  H121  1  0.05640963  0.76023095  0.18605291  1
  O  O122  1  0.01392842  0.81151127  0.32657305  1
  H  H123  1  0.24432823  0.76804920  0.14151199  1
  C  C124  1  0.11166244  0.93716568  0.43335270  1
  C  C125  1  0.09343839  0.93789872  0.30869285  1
  C  C126  1  0.09203619  0.78588983  0.35663397  1
  C  C127  1  0.05402346  0.81289330  0.41239919  1
  C  C128  1  0.23179410  0.86449468  0.41227178  1
  O  O129  1  0.20515306  0.87573973  0.33187171  1
  H  H130  1  0.13409549  0.91104944  0.46671012  1
  C  C131  1  0.06218943  0.97297991  0.27655548  1
  C  C132  1  0.12549439  0.60485100  0.84022542  1
  C  C133  1  0.12706937  0.65525705  0.84387268  1
  C  C134  1  0.08786630  0.58027148  0.78685883  1
  O  O135  1  0.05060636  0.59799305  0.74322312  1
  C  C136  1  0.10219144  0.68538771  0.76241628  1
  C  C137  1  0.11317599  0.73135366  0.75817156  1
  H  H138  1  0.07230878  0.67230373  0.70477271  1
  C  C139  1  0.16880211  0.58692723  0.87115728  1
  C  C140  1  0.17761343  0.53915677  0.86602192  1
  C  C141  1  0.09899681  0.53355985  0.78841975  1
  H  H142  1  0.04207361  0.56412890  0.58764660  1
  H  H143  1  0.19814980  0.60653861  0.89611255  1
  C  C144  1  0.14641340  0.74665088  0.84559188  1
  C  C145  1  0.15742142  0.67244893  0.93782115  1
  C  C146  1  0.16432016  0.71737363  0.94066824  1
  C  C147  1  0.22202009  0.51473694  0.86556019  1
  C  C148  1  0.13939563  0.51264215  0.82594707  1
  C  C149  1  0.01603200  0.56584024  0.67421003  1
  C  C150  1  0.19673529  0.51150653  0.51271456  1
  H  H151  1  0.14471970  0.62152460  0.55633124  1
  H  H152  1  0.02080173  0.74100491  0.95468151  1
  H  H153  1  0.09664039  0.65765939  0.55774705  1
  O  O154  1  0.16147562  0.53070107  0.50463727  1
  H  H155  1  0.01589573  0.53595812  0.73875973  1
  H  H156  1  0.09552705  0.75315537  0.68642315  1
  C  C157  1  0.00033618  0.98621124  0.90236235  1
  O  O158  1  0.05406256  0.83156657  0.51303972  1
  H  H159  1  0.03962639  0.85122274  0.77177566  1
  H  H160  1  0.13508967  0.80342012  0.52024246  1
  Cu  Cu161  1  0.18508111  0.84822561  0.64761778  1
  H  H162  1  0.01187976  0.87965244  0.60217751  1
  O  O163  1  0.14926220  0.82265576  0.75287686  1
  H  H164  1  0.10255527  0.84635407  0.95292671  1
  O  O165  1  0.22711229  0.87562511  0.54247903  1
  C  C166  1  0.08398562  0.87612815  0.92213668  1
  Cu  Cu167  1  0.20024071  0.92499559  0.59462569  1
  C  C168  1  0.23775472  0.90527461  0.85332665  1
  C  C169  1  0.11913399  0.97410677  0.64007258  1
  O  O170  1  0.14828274  0.94407495  0.67093487  1
  C  C171  1  0.22840727  0.94989652  0.82252417  1
  C  C172  1  0.03604401  0.86494794  0.87108036  1
  C  C173  1  0.16258868  0.79422343  0.84401626  1
  O  O174  1  0.18868546  0.80584559  0.92479489  1
  H  H175  1  0.10703742  0.89234829  0.84819675  1
  C  C176  1  0.09901913  0.97314839  0.51138567  1
  C  C177  1  0.04335968  0.98389380  0.94067153  1
  C  C178  1  0.21552605  0.98818672  0.80350692  1
  H  H179  1  0.01560302  0.89591742  0.86921160  1
  O  O180  1  0.00868263  0.82732683  0.93554023  1
  H  H181  1  0.21029536  0.88510759  0.89664628  1
  H  H182  1  0.00879146  0.96413839  0.54260874  1
  C  C183  1  0.39785814  0.08227523  0.33047099  1
  C  C184  1  0.42531714  0.11329153  0.26126918  1
  C  C185  1  0.40641498  0.03383337  0.30413070  1
  C  C186  1  0.27135369  0.19807639  0.22297122  1
  H  H187  1  0.43596627  0.19024633  0.10519945  1
  C  C188  1  0.45863983  0.09981539  0.16189317  1
  C  C189  1  0.46734422  0.05286866  0.12864828  1
  C  C190  1  0.27467322  0.15330169  0.18679949  1
  H  H191  1  0.33407572  0.14710762  0.29834141  1
  H  H192  1  0.29250979  0.06452835  0.20732595  1
  C  C193  1  0.30500912  0.22740226  0.18574179  1
  O  O194  1  0.42490473  0.15629118  0.27398943  1
  C  C195  1  0.46513452  0.17609715  0.16298092  1
  C  C196  1  0.43919587  0.03227579  0.21016611  1
  C  C197  1  0.33505132  0.13411313  0.39961796  1
  H  H198  1  0.39305815  0.00559572  0.35741907  1
  C  C199  1  0.34145433  0.21261767  0.10653163  1
  C  C200  1  0.48429417  0.13276141  0.10491222  1
  C  C201  1  0.30536816  0.13652902  0.09134633  1
  C  C202  1  0.33817984  0.16877204  0.05859112  1
  H  H203  1  0.27880546  0.17633171  0.45436379  1
  C  C204  1  0.36918288  0.10069927  0.43758508  1
  C  C205  1  0.30211122  0.15072212  0.48401659  1
  C  C206  1  0.25790006  0.05073519  0.20422047  1
  H  H207  1  0.30369666  0.10282271  0.04712071  1
  H  H208  1  0.49086570  0.03789154  0.05721759  1
  H  H209  1  0.49473516  0.08319492  0.40194565  1
  H  H210  1  0.36971126  0.23509761  0.07489211  1
  C  C211  1  0.40758470  0.23548894  0.44341944  1
  H  H212  1  0.38265903  0.08749858  0.03930474  1
  H  H213  1  0.38679027  0.24022075  0.35627019  1
  H  H214  1  0.49939070  0.23286582  0.24860026  1
  O  O215  1  0.32902969  0.00499757  0.10756115  1
  C  C216  1  0.25002405  0.00617732  0.15499429  1
  C  C217  1  0.45041834  0.25571980  0.46030678  1
  C  C218  1  0.30701538  0.40071030  0.42480769  1
  H  H219  1  0.36859234  0.29605898  0.13595684  1
  C  C220  1  0.34248671  0.30710882  0.20680107  1
  O  O221  1  0.30118649  0.43466739  0.18302679  1
  C  C222  1  0.48235006  0.44761704  0.06003427  1
  C  C223  1  0.26903266  0.28845228  0.30445318  1
  C  C224  1  0.46513008  0.28151052  0.34071912  1
  O  O225  1  0.44020292  0.28156589  0.24459554  1
  C  C226  1  0.26951258  0.33140178  0.35887514  1
  C  C227  1  0.30760461  0.35767129  0.35634737  1
  C  C228  1  0.26073038  0.44915584  0.19650331  1
  H  H229  1  0.26922822  0.36791209  0.09174627  1
  C  C230  1  0.30528715  0.27626210  0.22242557  1
  H  H231  1  0.37342189  0.36692979  0.27373713  1
  Cu  Cu232  1  0.34394846  0.46807899  0.26938519  1
  C  C233  1  0.34456124  0.34660494  0.27644194  1
  O  O234  1  0.34328845  0.42384416  0.41235505  1
  C  C235  1  0.49549815  0.40466905  0.00480614  1
  O  O236  1  0.27327158  0.41408399  0.48564825  1
  C  C237  1  0.43629994  0.12301615  0.75206987  1
  C  C238  1  0.41475780  0.16648246  0.76527740  1
  C  C239  1  0.30469428  0.13514430  0.61492044  1
  C  C240  1  0.39346009  0.01986304  0.88161011  1
  C  C241  1  0.43207244  0.04732292  0.84821635  1
  C  C242  1  0.41947310  0.09617668  0.85587219  1
  H  H243  1  0.34061221  0.10171222  0.76107662  1
  C  C244  1  0.33979626  0.10683833  0.65574538  1
  C  C245  1  0.42053987  0.20183105  0.65927717  1
  C  C246  1  0.39115581  0.10952933  0.95691861  1
  C  C247  1  0.38530404  0.18428556  0.85945434  1
  H  H248  1  0.36828090  0.21719963  0.84412744  1
  O  O249  1  0.46271960  0.10669346  0.66520545  1
  C  C250  1  0.47485245  0.02927188  0.80445680  1
  H  H251  1  0.40165577  0.06507131  0.59848616  1
  O  O252  1  0.26941558  0.14064538  0.81665234  1
  C  C253  1  0.26815176  0.14879078  0.69880202  1
  C  C254  1  0.37129713  0.08597620  0.57254653  1
  C  C255  1  0.39379706  0.20862424  0.54558597  1
  H  H256  1  0.36138299  0.03322950  0.92034440  1
  C  C257  1  0.37484519  0.15544081  0.96335857  1
  H  H258  1  0.36134844  0.19385328  0.53927126  1
  H  H259  1  0.48827104  0.16450607  0.58724019  1
  C  C260  1  0.47471758  0.13311014  0.54717704  1
  C  C261  1  0.46261936  0.22636807  0.67128795  1
  H  H262  1  0.47975945  0.22065367  0.76741634  1
  H  H263  1  0.44174743  0.14320176  0.50453778  1
  C  C264  1  0.25610242  0.44061539  0.88956444  1
  C  C265  1  0.38715032  0.49922000  0.75708851  1
  C  C266  1  0.44546614  0.47075562  0.99964138  1
  H  H267  1  0.40014576  0.35379515  0.89611573  1
  H  H268  1  0.37954124  0.35251600  0.73479873  1
  O  O269  1  0.47579007  0.39112923  0.91309042  1
  O  O270  1  0.33462284  0.43093908  0.82948013  1
  H  H271  1  0.35729293  0.31426160  0.84271689  1
  H  H272  1  0.29982596  0.36906219  0.81712842  1
  C  C273  1  0.29921707  0.45681542  0.84934243  1
  H  H274  1  0.27692489  0.47306723  0.58472283  1
  H  H275  1  0.31843082  0.38175701  0.97555575  1
  C  C276  1  0.32926884  0.37982006  0.87288465  1
  H  H277  1  0.38838771  0.46419619  0.78008862  1
  C  C278  1  0.48013219  0.25179318  0.56949270  1
  H  H279  1  0.43018814  0.45249098  0.91763363  1
  C  C280  1  0.37031649  0.34974995  0.83786034  1
  C  C281  1  0.41748049  0.69225448  0.26467619  1
  C  C282  1  0.28459027  0.52121635  0.11267279  1
  C  C283  1  0.27870127  0.56723850  0.10831147  1
  C  C284  1  0.43772695  0.60963803  0.19643271  1
  C  C285  1  0.41134761  0.64125892  0.26676811  1
  C  C286  1  0.46199509  0.71121419  0.25481704  1
  C  C287  1  0.38085908  0.72186070  0.27799776  1
  C  C288  1  0.45557256  0.52775967  0.16179578  1
  H  H289  1  0.34501443  0.71148052  0.29890608  1
  C  C290  1  0.43107878  0.56464910  0.23284736  1
  C  C291  1  0.37544215  0.62643802  0.34891780  1
  H  H292  1  0.45822361  0.62015362  0.11457399  1
  C  C293  1  0.39849029  0.54501642  0.32850252  1
  C  C294  1  0.36999459  0.58053055  0.37014200  1
  H  H295  1  0.36196205  0.67564396  0.07704587  1
  C  C296  1  0.28765701  0.59127836  0.41445575  1
  H  H297  1  0.28778663  0.62244338  0.36087525  1
  H  H298  1  0.35380053  0.65131393  0.39575069  1
  C  C299  1  0.32787365  0.56475999  0.43770879  1
  C  C300  1  0.27335915  0.70451265  0.09367805  1
  C  C301  1  0.27185225  0.65754757  0.09800787  1
  H  H302  1  0.30822688  0.58488637  0.07739126  1
  H  H303  1  0.31728547  0.50516567  0.08194010  1
  H  H304  1  0.49056346  0.68894579  0.24904817  1
  H  H305  1  0.29919662  0.63649176  0.04784759  1
  O  O306  1  0.39103726  0.50402070  0.34998449  1
  H  H307  1  0.45020285  0.69496422  0.47209354  1
  C  C308  1  0.43296535  0.51302891  0.04263104  1
  C  C309  1  0.49660415  0.50523224  0.21052837  1
  C  C310  1  0.35494568  0.70278227  0.00736351  1
  C  C311  1  0.31202240  0.72477917  0.00556598  1
  H  H312  1  0.32276214  0.78736625  0.11904811  1
  C  C313  1  0.39594647  0.91281552  0.18694371  1
  C  C314  1  0.30240219  0.82681178  0.47860088  1
  C  C315  1  0.46898725  0.75658276  0.24068533  1
  H  H316  1  0.25070211  0.83673210  0.17550475  1
  H  H317  1  0.36407314  0.92820198  0.22675011  1
  C  C318  1  0.39918126  0.86186868  0.21346802  1
  H  H319  1  0.37459664  0.84237017  0.15358012  1
  O  O320  1  0.44082753  0.83108732  0.20938381  1
  C  C321  1  0.29323127  0.98568885  0.10764987  1
  C  C322  1  0.31662450  0.79948392  0.21661101  1
  H  H323  1  0.39368733  0.91697494  0.08135823  1
  C  C324  1  0.34699883  0.78998056  0.31822447  1
  H  H325  1  0.25889559  0.93927510  0.04053967  1
  H  H326  1  0.42672189  0.93265691  0.22701113  1
  O  O327  1  0.29343457  0.94077984  0.05038155  1
  C  C328  1  0.33729923  0.79980153  0.45111750  1
  C  C329  1  0.39188425  0.76753466  0.28389900  1
  C  C330  1  0.43306737  0.78995083  0.24807509  1
  C  C331  1  0.27218703  0.83821657  0.37627870  1
  C  C332  1  0.27778680  0.82441781  0.24539277  1
  H  H333  1  0.38756546  0.85307464  0.31361820  1
  H  H334  1  0.45658532  0.75674921  0.48158702  1
  C  C335  1  0.34642663  0.57186390  0.74457304  1
  C  C336  1  0.38163578  0.59366902  0.67853948  1
  H  H337  1  0.31861696  0.59085577  0.79279157  1
  H  H338  1  0.38195402  0.62806063  0.64925992  1
  H  H339  1  0.43143970  0.69105100  0.69647263  1
  C  C340  1  0.41894038  0.64027989  0.89852431  1
  C  C341  1  0.45732557  0.58417546  0.57503674  1
  C  C342  1  0.45492326  0.60952548  0.90770189  1
  H  H343  1  0.38525947  0.62786077  0.86801318  1
  H  H344  1  0.45087716  0.57352258  0.89324399  1
  C  C345  1  0.38494183  0.71621235  0.90885622  1
  C  C346  1  0.42662689  0.68659416  0.92306616  1
  C  C347  1  0.44516009  0.72273058  0.66905487  1
  C  C348  1  0.26478230  0.53209663  0.82839570  1
  C  C349  1  0.41834331  0.56518012  0.65037774  1
  C  C350  1  0.42246975  0.51864807  0.68510289  1
  C  C351  1  0.34452385  0.52489210  0.77828624  1
  H  H352  1  0.45339338  0.50031438  0.65107401  1
  C  C353  1  0.30250730  0.50401374  0.82392970  1
  C  C354  1  0.46921213  0.70262995  0.96949565  1
  C  C355  1  0.28167104  0.50518663  0.53449709  1
  O  O356  1  0.46198666  0.62194304  0.53970540  1
  H  H357  1  0.35280519  0.50299231  0.53436016  1
  O  O358  1  0.49185956  0.55431220  0.53735145  1
  C  C359  1  0.46463971  0.72371067  0.53109873  1
  H  H360  1  0.47454491  0.73880748  0.98516333  1
  H  H361  1  0.26850606  0.56526968  0.78869456  1
  H  H362  1  0.40661121  0.53385210  0.99666022  1
  H  H363  1  0.47164476  0.73206506  0.74335447  1
  C  C364  1  0.49638554  0.62498731  0.94653167  1
  C  C365  1  0.38120867  0.74778344  0.80530432  1
  C  C366  1  0.32381504  0.52409472  0.51063239  1
  H  H367  1  0.36711396  0.95411574  0.85802470  1
  C  C368  1  0.37462704  0.84831242  0.78696964  1
  O  O369  1  0.46331773  0.88384976  0.74010664  1
  O  O370  1  0.38318279  0.88883178  0.78827162  1
  H  H371  1  0.40911281  0.83183913  0.77909639  1
  C  C372  1  0.27944150  0.88660570  0.81175691  1
  O  O373  1  0.40740831  0.75807732  0.70939681  1
  C  C374  1  0.33464979  0.82215450  0.80300161  1
  C  C375  1  0.47934633  0.98340188  0.79230529  1
  C  C376  1  0.30549922  0.76225422  0.92497260  1
  H  H377  1  0.36201222  0.78660658  0.51540064  1
  C  C378  1  0.43906130  0.95656040  0.80340359  1
  C  C379  1  0.43512360  0.90791824  0.77711662  1
  H  H380  1  0.26124317  0.81786924  0.81928037  1
  H  H381  1  0.29944216  0.83907462  0.57959470  1
  C  C382  1  0.34293484  0.77450346  0.84542395  1
  C  C383  1  0.29000634  0.84000814  0.81244286  1
  C  C384  1  0.39857969  0.97470182  0.85141476  1
  H  H385  1  0.30301982  0.91196624  0.77232033  1
  H  H386  1  0.27330351  0.78122142  0.92591780  1
  C  C387  1  0.54024928  0.20678949  0.09516427  1
  O  O388  1  0.65234428  0.17072858  0.22617419  1
  H  H389  1  0.63338321  0.15001056  0.17776865  1
  O  O390  1  0.58623454  0.15354775  0.34710811  1
  C  C391  1  0.62473596  0.16588648  0.35393632  1
  H  H392  1  0.71421347  0.18739493  0.39209837  1
  O  O393  1  0.61201212  0.22755250  0.02638360  1
  H  H394  1  0.50727524  0.14078440  0.35843357  1
  C  C395  1  0.57822282  0.23841960  0.09910560  1
  Cu  Cu396  1  0.66633445  0.23447920  0.12928824  1
  H  H397  1  0.54297713  0.11333447  0.47713693  1
  C  C398  1  0.50338091  0.20860034  0.17400388  1
  C  C399  1  0.52029938  0.13345367  0.00326804  1
  C  C400  1  0.50643851  0.11699938  0.43756241  1
  H  H401  1  0.71040968  0.03833629  0.03622615  1
  C  C402  1  0.69239702  0.19603149  0.47462393  1
  C  C403  1  0.64505926  0.18421233  0.47363919  1
  C  C404  1  0.74493712  0.40990318  0.21970922  1
  C  C405  1  0.74414371  0.44739767  0.31355713  1
  O  O406  1  0.61632227  0.34834498  0.27447246  1
  O  O407  1  0.50298011  0.30423583  0.33645081  1
  C  C408  1  0.72387324  0.41391766  0.09711686  1
  H  H409  1  0.67703145  0.36779278  0.40846810  1
  C  C410  1  0.51017123  0.46527007  0.16256376  1
  C  C411  1  0.65848356  0.38822860  0.48023097  1
  O  O412  1  0.71743563  0.25085986  0.23855093  1
  O  O413  1  0.72116329  0.48336343  0.28682724  1
  C  C414  1  0.59252954  0.37230761  0.34910649  1
  Cu  Cu415  1  0.51840187  0.34120565  0.20514894  1
  C  C416  1  0.73826437  0.33430323  0.05501697  1
  H  H417  1  0.71275541  0.44791209  0.06484002  1
  O  O418  1  0.57927525  0.27068696  0.17552138  1
  Cu  Cu419  1  0.62965285  0.28513507  0.29547851  1
  O  O420  1  0.68042023  0.28448313  0.39701991  1
  C  C421  1  0.71830376  0.37701346  0.02390184  1
  C  C422  1  0.61245902  0.39332285  0.46376321  1
  H  H423  1  0.54028910  0.44832428  0.20168919  1
  H  H424  1  0.63399660  0.48780443  0.15415481  1
  O  O425  1  0.52588993  0.38125486  0.06994236  1
  O  O426  1  0.55121163  0.37859840  0.32331726  1
  C  C427  1  0.71725509  0.26983928  0.35039857  1
  C  C428  1  0.63551574  0.20911486  0.69573498  1
  C  C429  1  0.61696247  0.18945935  0.58527404  1
  C  C430  1  0.68189295  0.22272538  0.69885599  1
  C  C431  1  0.70966472  0.21308380  0.58866659  1
  H  H432  1  0.61708496  0.21409319  0.78874314  1
  H  H433  1  0.58132945  0.17607530  0.57474228  1
  H  H434  1  0.73790680  0.17549111  0.80661185  1
  C  C435  1  0.74023521  0.20963496  0.84748323  1
  C  C436  1  0.70833550  0.24290382  0.81421090  1
  H  H437  1  0.57031748  0.17308651  0.92120705  1
  C  C438  1  0.74390127  0.01211095  0.85788146  1
  H  H439  1  0.74475731  0.22090028  0.58115955  1
  C  C440  1  0.71162917  0.01017330  0.96381809  1
  H  H441  1  0.50286889  0.05210633  0.78413292  1
  H  H442  1  0.52918365  0.10497903  0.94217347  1
  C  C443  1  0.54646434  0.17048528  0.99955328  1
  H  H444  1  0.64787538  0.29232547  0.67737937  1
  O  O445  1  0.67446453  0.31484276  0.86515894  1
  O  O446  1  0.62660100  0.46841711  0.94396685  1
  C  C447  1  0.58642730  0.41898749  0.55378824  1
  H  H448  1  0.71639422  0.30311399  0.58651693  1
  H  H449  1  0.51236695  0.26968810  0.57022062  1
  C  C450  1  0.59699067  0.34135357  0.74737553  1
  H  H451  1  0.59019971  0.46665499  0.70308302  1
  C  C452  1  0.72339831  0.47895961  0.71052149  1
  C  C453  1  0.60963310  0.44150798  0.64578871  1
  H  H454  1  0.71925432  0.40619801  0.58459932  1
  H  H455  1  0.70113601  0.38260394  0.93045177  1
  C  C456  1  0.68286396  0.40981455  0.57912997  1
  C  C457  1  0.70493576  0.28398387  0.88105491  1
  H  H458  1  0.57653091  0.34426917  0.84012244  1
  H  H459  1  0.57788179  0.33346079  0.65981315  1
  H  H460  1  0.61334786  0.37379761  0.73334820  1
  H  H461  1  0.61702519  0.27626328  0.83049791  1
  C  C462  1  0.66444255  0.47795116  0.89407574  1
  C  C463  1  0.73961246  0.29373009  0.97748585  1
  C  C464  1  0.65739832  0.43679907  0.66924747  1
  C  C465  1  0.63270648  0.30427280  0.76749936  1
  C  C466  1  0.68207000  0.46604563  0.76732007  1
  H  H467  1  0.73409412  0.46946131  0.60915345  1
  H  H468  1  0.55071503  0.42522797  0.54954776  1
  C  C469  1  0.64906440  0.59623729  0.25258104  1
  C  C470  1  0.63326602  0.55172326  0.25360929  1
  H  H471  1  0.60794253  0.54327686  0.32543382  1
  C  C472  1  0.63501977  0.63071285  0.34777060  1
  O  O473  1  0.65326872  0.66581922  0.34775923  1
  C  C474  1  0.64822673  0.52101635  0.15764412  1
  C  C475  1  0.67884515  0.61293712  0.15590957  1
  H  H476  1  0.69091322  0.64867227  0.16152402  1
  H  H477  1  0.54857431  0.70856250  0.33014262  1
  H  H478  1  0.62630902  0.73799747  0.33613866  1
  C  C479  1  0.55443727  0.74179799  0.28824892  1
  C  C480  1  0.67968289  0.53793595  0.06347268  1
  C  C481  1  0.69344544  0.58411313  0.06007499  1
  O  O482  1  0.60237739  0.61899537  0.44566551  1
  H  H483  1  0.51438877  0.52157163  0.29714767  1
  Cu  Cu484  1  0.74816635  0.53728550  0.24707529  1
  H  H485  1  0.51333635  0.57228303  0.49242091  1
  O  O486  1  0.56888836  0.60897999  0.01153100  1
  H  H487  1  0.53745281  0.68052764  0.00667467  1
  H  H488  1  0.50633787  0.82865276  0.10897214  1
  C  C489  1  0.59856862  0.75642829  0.29143283  1
  C  C490  1  0.61054353  0.79848189  0.23778156  1
  C  C491  1  0.53227303  0.80825177  0.15895326  1
  C  C492  1  0.65569195  0.81698735  0.24459570  1
  C  C493  1  0.57590213  0.82373724  0.17261906  1
  Cu  Cu494  1  0.73501149  0.81397837  0.40099321  1
  H  H495  1  0.58576996  0.85545609  0.12564444  1
  C  C496  1  0.51960470  0.76766080  0.22915250  1
  O  O497  1  0.66496349  0.85575597  0.20486774  1
  Cu  Cu498  1  0.71817805  0.87713422  0.15879280  1
  O  O499  1  0.68494216  0.79338969  0.31035085  1
  C  C500  1  0.71756854  0.65548275  0.69170305  1
  C  C501  1  0.67807368  0.64775863  0.75898696  1
  C  C502  1  0.65926515  0.60083421  0.73476120  1
  O  O503  1  0.62193058  0.59142135  0.80389938  1
  C  C504  1  0.65457558  0.67667955  0.83943446  1
  H  H505  1  0.62011771  0.66821751  0.86229156  1
  C  C506  1  0.67297655  0.71871474  0.86543653  1
  C  C507  1  0.71700700  0.72805536  0.80770272  1
  O  O508  1  0.67797269  0.57491469  0.66717927  1
  C  C509  1  0.55446111  0.64532363  0.64261091  1
  H  H510  1  0.73260630  0.62877063  0.63607229  1
  H  H511  1  0.62837682  0.64056014  0.60093480  1
  Cu  Cu512  1  0.57709231  0.50847755  0.94771551  1
  H  H513  1  0.52019865  0.64995277  0.59331651  1
  H  H514  1  0.55778319  0.67374595  0.71411228  1
  H  H515  1  0.55228233  0.61124243  0.69275607  1
  C  C516  1  0.73872910  0.52281220  0.91260701  1
  C  C517  1  0.59550858  0.65085163  0.55140359  1
  C  C518  1  0.69520019  0.50914336  0.95310725  1
  O  O519  1  0.52908204  0.55068297  0.94953774  1
  C  C520  1  0.53288305  0.59309908  0.96494535  1
  H  H521  1  0.50346113  0.72144313  0.53558191  1
  Cu  Cu522  1  0.62360307  0.57994609  0.98023201  1
  C  C523  1  0.73794310  0.69638648  0.72306841  1
  H  H524  1  0.71838497  0.59430974  0.98484469  1
  H  H525  1  0.65555238  0.74296182  0.92610319  1
  C  C526  1  0.50482764  0.67083859  0.97585944  1
  H  H527  1  0.59759140  0.68781886  0.53177233  1
  H  H528  1  0.72143517  0.95560168  0.52149593  1
  H  H529  1  0.59936817  0.76689967  0.57276191  1
  H  H530  1  0.56945119  0.75081632  0.72548356  1
  H  H531  1  0.59134146  0.91000849  0.76753279  1
  C  C532  1  0.60047025  0.87302118  0.76782568  1
  C  C533  1  0.74012127  0.77321999  0.80396127  1
  H  H534  1  0.73056400  0.93273187  0.89170783  1
  H  H535  1  0.50681350  0.79687099  0.67316552  1
  H  H536  1  0.53176382  0.81402834  0.51517504  1
  C  C537  1  0.53588276  0.79687333  0.60557883  1
  H  H538  1  0.58684124  0.86006593  0.85989415  1
  C  C539  1  0.71625201  0.81444416  0.78445899  1
  H  H540  1  0.58327202  0.85386647  0.68758715  1
  H  H541  1  0.66712255  0.87629095  0.66339468  1
  C  C542  1  0.65205560  0.86579298  0.75886434  1
  C  C543  1  0.57053800  0.77152542  0.63639953  1
  H  H544  1  0.66943761  0.88754454  0.83281146  1
  O  O545  1  0.68170092  0.98491972  0.99496931  1
  O  O546  1  0.67123839  0.81989124  0.76187373  1
  C  C547  1  0.74748264  0.98172657  0.74192769  1
  C  C548  1  0.73937572  0.93904278  0.78923775  1
  C  C549  1  0.74648844  0.89610286  0.72524845  1
  H  H550  1  0.51138170  0.96912761  0.75810641  1
  H  H551  1  0.89273726  0.15540316  0.31357652  1
  C  C552  1  0.91847228  0.17851097  0.26862350  1
  C  C553  1  0.95095427  0.20074768  0.34008699  1
  C  C554  1  0.91944327  0.18704659  0.13150963  1
  C  C555  1  0.95496119  0.21509569  0.07710271  1
  C  C556  1  0.98374523  0.23036079  0.28714212  1
  H  H557  1  0.84278910  0.22365788  0.12696942  1
  C  C558  1  0.98925728  0.23273612  0.15002374  1
  H  H559  1  0.94800128  0.20040004  0.44809850  1
  H  H560  1  0.96703615  0.13041492  0.14786700  1
  C  C561  1  0.84430007  0.19691349  0.05445287  1
  C  C562  1  0.88199720  0.16997638  0.04402188  1
  H  H563  1  0.88086878  0.02538120  0.41415148  1
  H  H564  1  0.82314008  0.15442008  0.47163026  1
  H  H565  1  0.91248711  0.00999205  0.17154861  1
  H  H566  1  0.80856356  0.24813176  0.30391742  1
  C  C567  1  0.97246067  0.11983496  0.04388582  1
  C  C568  1  0.96516952  0.45154493  0.04345368  1
  H  H569  1  0.88630969  0.45980821  0.18691424  1
  H  H570  1  0.78359079  0.37229642  0.35238511  1
  C  C571  1  0.86927844  0.32654210  0.17731390  1
  C  C572  1  0.75724500  0.27710364  0.42816389  1
  H  H573  1  0.87367127  0.26190857  0.44756568  1
  O  O574  1  0.94777395  0.30894739  0.46659599  1
  C  C575  1  0.92638495  0.38499094  0.44021233  1
  H  H576  1  0.84666854  0.34652877  0.12568170  1
  H  H577  1  0.92042417  0.27789048  0.16680413  1
  O  O578  1  0.98479187  0.48466997  0.10063554  1
  C  C579  1  0.94154079  0.42589177  0.39059327  1
  H  H580  1  0.87566604  0.33212829  0.28313745  1
  H  H581  1  0.89028873  0.28710754  0.01181867  1
  C  C582  1  0.83861089  0.27102518  0.47703215  1
  C  C583  1  0.98606927  0.40813719  0.04021404  1
  H  H584  1  0.93102126  0.49402372  0.38951380  1
  C  C585  1  0.87701362  0.48917685  0.12812112  1
  C  C586  1  0.89401461  0.29589886  0.11510127  1
  H  H587  1  0.77731212  0.30142823  0.20275364  1
  O  O588  1  0.98934912  0.35016114  0.33792237  1
  H  H589  1  0.79823783  0.27041115  0.07942417  1
  C  C590  1  0.76719205  0.36983013  0.25240627  1
  H  H591  1  0.96896830  0.42653548  0.32064440  1
  C  C592  1  0.95496025  0.34548150  0.40770952  1
  C  C593  1  0.76558870  0.33365555  0.16956283  1
  O  O594  1  0.76776267  0.44517990  0.40875472  1
  C  C595  1  0.91816630  0.46288940  0.43344944  1
  C  C596  1  0.80190795  0.26269077  0.39652649  1
  C  C597  1  0.77317661  0.26131147  0.00625591  1
  H  H598  1  0.91928613  0.09160924  0.73463416  1
  C  C599  1  0.84927436  0.07907220  0.81348149  1
  C  C600  1  0.81223866  0.04932838  0.78997324  1
  C  C601  1  0.81128804  0.14379070  0.89974138  1
  C  C602  1  0.85061336  0.12041336  0.89554875  1
  C  C603  1  0.88796602  0.07118101  0.73291415  1
  O  O604  1  0.89197711  0.20956614  0.62278897  1
  H  H605  1  0.94249576  0.16366132  0.70050940  1
  C  C606  1  0.84926196  0.18916975  0.63307007  1
  O  O607  1  0.89825244  0.04079636  0.64480010  1
  H  H608  1  0.84587564  0.18452677  0.74039865  1
  C  C609  1  0.97468074  0.17594447  0.73895149  1
  C  C610  1  0.97840674  0.22202680  0.77827473  1
  H  H611  1  0.78233365  0.13219469  0.84010799  1
  H  H612  1  0.81496019  0.02671885  0.70918153  1
  C  C613  1  0.77386194  0.22087369  0.94115694  1
  C  C614  1  0.94607338  0.02314905  0.61689315  1
  C  C615  1  0.77669852  0.04643727  0.87858840  1
  H  H616  1  0.82380235  0.21634131  0.60590748  1
  H  H617  1  0.77453798  0.06962479  0.96246273  1
  C  C618  1  0.89121422  0.13139113  0.96649492  1
  H  H619  1  0.88242018  0.01924978  0.98954651  1
  O  O620  1  0.97478403  0.04588264  0.57358869  1
  O  O621  1  0.92734611  0.10666704  0.95662430  1
  C  C622  1  0.90107704  0.24962400  0.69576130  1
  C  C623  1  0.80963107  0.18524336  0.96828311  1
  H  H624  1  0.95455620  0.21796366  0.97115561  1
  C  C625  1  0.83370464  0.14421995  0.56559140  1
  H  H626  1  0.86310089  0.12083177  0.55406596  1
  H  H627  1  0.80288639  0.12927557  0.61408244  1
  H  H628  1  0.98031563  0.15222247  0.99307488  1
  C  C629  1  0.92195386  0.44840440  0.97884119  1
  C  C630  1  0.93915577  0.25504391  0.77519101  1
  H  H631  1  0.88553409  0.34795324  0.57936065  1
  C  C632  1  0.87347683  0.32242319  0.77772737  1
  H  H633  1  0.84652685  0.34853355  0.76849119  1
  C  C634  1  0.90092464  0.41071202  0.92131981  1
  C  C635  1  0.89107078  0.48907236  0.99258430  1
  C  C636  1  0.94675922  0.29520372  0.85083203  1
  H  H637  1  0.84088452  0.41670107  0.63694591  1
  C  C638  1  0.75004912  0.29531832  0.55414847  1
  Cu  Cu639  1  0.98394184  0.28667068  0.59600207  1
  C  C640  1  0.89207092  0.38045920  0.53215500  1
  H  H641  1  0.81924701  0.46073396  0.71623554  1
  H  H642  1  0.77762297  0.31148535  0.74445494  1
  C  C643  1  0.83011935  0.28855694  0.60446942  1
  C  C644  1  0.87031238  0.28547468  0.69669108  1
  C  C645  1  0.92567532  0.36935178  0.93128932  1
  C  C646  1  0.78523849  0.30005885  0.64187812  1
  C  C647  1  0.82299053  0.49279263  0.66548879  1
  C  C648  1  0.88200127  0.46210301  0.52417013  1
  C  C649  1  0.86902742  0.41889216  0.56997007  1
  H  H650  1  0.86726389  0.41003404  0.87595847  1
  H  H651  1  0.97847237  0.29722006  0.90262842  1
  C  C652  1  0.91302830  0.32794303  0.85380755  1
  H  H653  1  0.98787072  0.33913055  0.99687284  1
  C  C654  1  0.96800533  0.36868081  0.99947479  1
  C  C655  1  0.79108349  0.68807315  0.43995607  1
  O  O656  1  0.77928645  0.58881323  0.21649967  1
  H  H657  1  0.84449717  0.61017931  0.34616942  1
  H  H658  1  0.94365172  0.60256055  0.23712920  1
  H  H659  1  0.90700641  0.64706717  0.19401557  1
  C  C660  1  0.90630006  0.61196785  0.22981687  1
  C  C661  1  0.88175910  0.60394020  0.35778615  1
  H  H662  1  0.88942367  0.59123004  0.15738811  1
  H  H663  1  0.76690153  0.61906946  0.43875064  1
  O  O664  1  0.88303357  0.55377738  0.41749536  1
  C  C665  1  0.80026392  0.59324826  0.10323321  1
  C  C666  1  0.96688951  0.53481737  0.08665282  1
  H  H667  1  0.89412648  0.62861842  0.43420891  1
  C  C668  1  0.83167567  0.55360538  0.07417797  1
  H  H669  1  0.91611134  0.71368850  0.32939010  1
  C  C670  1  0.93899429  0.71780340  0.24713559  1
  H  H671  1  0.93160456  0.54062146  0.12976043  1
  H  H672  1  0.83360338  0.51857375  0.26814225  1
  C  C673  1  0.84685641  0.52135074  0.17021454  1
  H  H674  1  0.98238823  0.60732588  0.10223625  1
  H  H675  1  0.76525315  0.70136127  0.37140657  1
  C  C676  1  0.79255576  0.64283983  0.47603029  1
  O  O677  1  0.78952415  0.61966198  0.02387154  1
  C  C678  1  0.92509211  0.74701988  0.14981587  1
  C  C679  1  0.99968746  0.57415632  0.11517902  1
  C  C680  1  0.98031940  0.69429763  0.24175458  1
  C  C681  1  0.99873998  0.73085496  0.03802125  1
  C  C682  1  0.99559621  0.66072295  0.34119737  1
  O  O683  1  0.96844547  0.65311823  0.43749071  1
  H  H684  1  0.99096112  0.87405175  0.35202802  1
  C  C685  1  0.80476766  0.88713639  0.06154296  1
  H  H686  1  0.78306476  0.96468854  0.34490903  1
  C  C687  1  0.92919208  0.91375159  0.01310021  1
  C  C688  1  0.88892231  0.88769559  0.03204548  1
  H  H689  1  0.88720853  0.85187986  0.02404457  1
  C  C690  1  0.84662369  0.91150396  0.03417351  1
  O  O691  1  0.81052169  0.84506197  0.07263469  1
  C  C692  1  0.82407853  0.90476163  0.40246461  1
  O  O693  1  0.86442020  0.90636558  0.40119549  1
  H  H694  1  0.96278041  0.89705854  0.01048380  1
  H  H695  1  0.91131047  0.80095762  0.33589026  1
  H  H696  1  0.85202639  0.97012095  0.35259405  1
  H  H697  1  0.92897917  0.83925630  0.19417398  1
  Cu  Cu698  1  0.79756817  0.81322347  0.21917272  1
  C  C699  1  0.91828260  0.98395645  0.25241392  1
  O  O700  1  0.76078160  0.85754035  0.29909733  1
  C  C701  1  0.99010656  0.98180981  0.14561087  1
  C  C702  1  0.88626415  0.99026797  0.37230832  1
  O  O703  1  0.76677359  0.90564275  0.07265664  1
  C  C704  1  0.78030956  0.88790042  0.35459105  1
  H  H705  1  0.90046845  0.97511249  0.46355792  1
  H  H706  1  0.89294384  0.76452157  0.15531737  1
  C  C707  1  0.97222663  0.98052662  0.02200000  1
  O  O708  1  0.78694042  0.78131976  0.36978039  1
  H  H709  1  0.90603459  0.95028485  0.20871561  1
  C  C710  1  0.78101220  0.93442009  0.40518229  1
  O  O711  1  0.96569123  0.98035642  0.26217021  1
  C  C712  1  0.92833412  0.83363365  0.30951875  1
  H  H713  1  0.90705820  0.86304644  0.34349443  1
  C  C714  1  0.97792174  0.83897642  0.36414572  1
  C  C715  1  0.81904403  0.76551993  0.46109088  1
  C  C716  1  0.84173380  0.95815143  0.01654649  1
  H  H717  1  0.80846644  0.97575515  0.01998910  1
  C  C718  1  0.95603705  0.75299220  0.04449311  1
  H  H719  1  0.97349061  0.83255540  0.46947909  1
  C  C720  1  0.79284698  0.52577994  0.71771582  1
  C  C721  1  0.79808097  0.57097060  0.68149832  1
  H  H722  1  0.88653467  0.64337623  0.67925154  1
  H  H723  1  0.77707440  0.59726976  0.72447142  1
  H  H724  1  0.83207926  0.57969942  0.87650549  1
  C  C725  1  0.96843942  0.58105711  0.63755789  1
  C  C726  1  0.83221366  0.57794826  0.58842436  1
  C  C727  1  0.85993810  0.65748533  0.61658272  1
  H  H728  1  0.76993704  0.70619738  0.67264671  1
  H  H729  1  0.87796064  0.72951629  0.63713728  1
  C  C730  1  0.85492024  0.70313157  0.59492509  1
  H  H731  1  0.80378973  0.73091964  0.81026254  1
  H  H732  1  0.94994422  0.55704739  0.57483120  1
  C  C733  1  0.82818064  0.62800619  0.55385180  1
  H  H734  1  0.96990310  0.61352930  0.57205684  1
  C  C735  1  0.84470475  0.55392479  0.94208529  1
  H  H736  1  0.94625490  0.58749827  0.71740638  1
  C  C737  1  0.87562542  0.52071789  0.90453990  1
  H  H738  1  0.88749048  0.51879310  0.80350621  1
  C  C739  1  0.85880454  0.54585153  0.51685458  1
  H  H740  1  0.75898236  0.54317902  0.97171580  1
  H  H741  1  0.96094357  0.53204866  0.97618213  1
  C  C742  1  0.85504065  0.50188643  0.57182631  1
  C  C743  1  0.75073158  0.50808895  0.78873417  1
  C  C744  1  0.82095032  0.71739214  0.50205640  1
  H  H745  1  0.87392784  0.75146302  0.97001402  1
  O  O746  1  0.84499729  0.79104264  0.51249722  1
  C  C747  1  0.88119511  0.98255019  0.99774790  1
  C  C748  1  0.89930242  0.83081088  0.74657697  1
  H  H749  1  0.87951223  0.97895676  0.74118741  1
  C  C750  1  0.75969778  0.89829012  0.59702702  1
  C  C751  1  0.90918929  0.95801635  0.71572389  1
  C  C752  1  0.78762641  0.76574638  0.80874734  1
  C  C753  1  0.96774888  0.81982498  0.89351197  1
  C  C754  1  0.98381620  0.94807428  0.60738203  1
  C  C755  1  0.89360420  0.77704003  0.91712701  1
  H  H756  1  0.77513833  0.86839191  0.55258708  1
  C  C757  1  0.81969114  0.80071946  0.80115956  1
  C  C758  1  0.95111636  0.88522303  0.72157914  1
  C  C759  1  0.75081058  0.84735701  0.77631478  1
  C  C760  1  0.79839567  0.84165987  0.77985457  1
  H  H761  1  0.88463296  0.89947400  0.81063117  1
  C  C762  1  0.94414281  0.84092457  0.78707141  1
  C  C763  1  0.91273624  0.91417304  0.75749979  1
  C  C764  1  0.94736798  0.97577905  0.64690693  1
  C  C765  1  0.87181701  0.80097897  0.81844827  1
  H  H766  1  0.98623751  0.98806860  0.79815970  1
  C  C767  1  0.93857251  0.78587959  0.94684350  1
  H  H768  1  0.88836187  0.85048437  0.66231348  1
  C  C769  1  0.98562027  0.90243100  0.63979138  1
  H  H770  1  0.81982764  0.87273647  0.76516532  1
  C  C771  1  0.75750793  0.94279552  0.53125467  1
  O  O772  1  0.75789913  0.99095905  0.62163928  1
  C  C773  1  0.92516857  0.96093798  0.99861974  1
