# generated using pymatgen
data_Cu4H8C24ClO16
_symmetry_space_group_name_H-M   'P 1'
_cell_length_a   29.91242345
_cell_length_b   26.62948445
_cell_length_c   32.70091357
_cell_angle_alpha   90.00000000
_cell_angle_beta   90.00000000
_cell_angle_gamma   90.00000000
_symmetry_Int_Tables_number   1
_chemical_formula_structural   Cu4H8C24ClO16
_chemical_formula_sum   'Cu96 H192 C576 Cl24 O384'
_cell_volume   26047.99167877
_cell_formula_units_Z   24
loop_
 _symmetry_equiv_pos_site_id
 _symmetry_equiv_pos_as_xyz
  1  'x, y, z'
loop_
 _atom_site_type_symbol
 _atom_site_label
 _atom_site_symmetry_multiplicity
 _atom_site_fract_x
 _atom_site_fract_y
 _atom_site_fract_z
 _atom_site_occupancy
  Cu  Cu0  1  0.19199792  0.07185891  0.07151409  1
  O  O1  1  0.14971662  0.06704327  0.11128429  1
  C  C2  1  0.11318323  0.09209923  0.11719081  1
  H  H3  1  0.18746191  0.13348615  0.15116995  1
  C  C4  1  0.11491056  0.13939221  0.13834477  1
  C  C5  1  0.15646227  0.15563476  0.15374843  1
  O  O6  1  0.07535411  0.07537580  0.10516277  1
  C  C7  1  0.07653579  0.17006458  0.13917066  1
  C  C8  1  0.17043325  0.04047074  0.20743005  1
  C  C9  1  0.15757268  0.20181722  0.17220559  1
  O  O10  1  0.23396416  0.20283946  0.18888825  1
  H  H11  1  0.17274887  0.03842496  0.17307239  1
  H  H12  1  0.04679961  0.15803731  0.12125070  1
  Cu  Cu13  1  0.03811967  0.04298619  0.14612013  1
  C  C14  1  0.08102370  0.21634654  0.15875518  1
  C  C15  1  0.19849182  0.22241765  0.19528758  1
  C  C16  1  0.24437713  0.07800435  0.20953990  1
  C  C17  1  0.12096017  0.23477344  0.17560985  1
  O  O18  1  0.24579050  0.07133034  0.17114627  1
  O  O19  1  0.23472691  0.09361763  0.03588424  1
  O  O20  1  0.23924621  0.16993374  0.06412255  1
  C  C21  1  0.20485885  0.06037352  0.23117300  1
  O  O22  1  0.08842602  0.00821417  0.16804296  1
  O  O23  1  0.22054165  0.00980692  0.08406270  1
  C  C24  1  0.13606507  0.01530942  0.22743013  1
  O  O25  1  0.00516742  0.24234772  0.14450974  1
  C  C26  1  0.25400616  0.13566892  0.04343456  1
  H  H27  1  0.28639235  0.21827946  0.05711933  1
  Cu  Cu28  1  0.30183595  0.05467116  0.14335948  1
  C  C29  1  0.38759524  0.09990616  0.12230950  1
  C  C30  1  0.38951978  0.15751640  0.18010962  1
  O  O31  1  0.34241825  0.10173833  0.13060011  1
  C  C32  1  0.41484851  0.13379071  0.15038480  1
  O  O33  1  0.40337030  0.07229852  0.09818327  1
  C  C34  1  0.46096163  0.13531717  0.14938645  1
  H  H35  1  0.47838684  0.11324804  0.12492212  1
  H  H36  1  0.35143737  0.15200042  0.18092988  1
  C  C37  1  0.41411736  0.18651900  0.20786295  1
  C  C38  1  0.46029975  0.19114370  0.20662468  1
  C  C39  1  0.48433122  0.16563309  0.17607359  1
  O  O40  1  0.34572546  0.02548605  0.20605629  1
  H  H41  1  0.43186855  0.02137884  0.17765052  1
  O  O42  1  0.27675898  0.09612627  0.22992340  1
  C  C43  1  0.31108353  0.19750538  0.03720046  1
  C  C44  1  0.29943084  0.14879015  0.02756384  1
  H  H45  1  0.47660625  0.20918102  0.23551602  1
  O  O46  1  0.29178765  0.02477762  0.09003507  1
  C  C47  1  0.26131993  0.00213971  0.07312202  1
  C  C48  1  0.35291774  0.21404459  0.02202964  1
  C  C49  1  0.32648536  0.11456823  0.00634579  1
  O  O50  1  0.35112684  0.20132042  0.24531470  1
  C  C51  1  0.38856088  0.21135798  0.24189249  1
  C  C52  1  0.38296020  0.18104186  0.00284911  1
  C  C53  1  0.04252821  0.25268493  0.16293362  1
  H  H54  1  0.03328631  0.26720575  0.01258956  1
  O  O55  1  0.10148176  0.49526415  0.16724261  1
  O  O56  1  0.19432454  0.25952764  0.21976857  1
  H  H57  1  0.12511891  0.26958329  0.19323661  1
  O  O58  1  0.04675555  0.29088249  0.18236654  1
  H  H59  1  0.11714839  0.42235685  0.19775169  1
  C  C60  1  0.19886468  0.46724917  0.09956009  1
  H  H61  1  0.19533472  0.44089573  0.07371657  1
  C  C62  1  0.20785477  0.45201317  0.13978421  1
  C  C63  1  0.21658114  0.39823735  0.15024984  1
  H  H64  1  0.22173913  0.47660691  0.20084525  1
  C  C65  1  0.21443158  0.48838134  0.16938350  1
  C  C66  1  0.09952341  0.43206295  0.22729559  1
  O  O67  1  0.14180322  0.34123221  0.21980449  1
  Cu  Cu68  1  0.20212071  0.32656676  0.21029720  1
  O  O69  1  0.21667740  0.36920350  0.12361511  1
  O  O70  1  0.21796572  0.38916418  0.19151798  1
  C  C71  1  0.07927210  0.47855710  0.23178694  1
  O  O72  1  0.18347011  0.49854290  0.01928074  1
  H  H73  1  0.49216163  0.41233558  0.05528547  1
  O  O74  1  0.40622868  0.28034265  0.01422694  1
  C  C75  1  0.49046328  0.40846321  0.14303379  1
  Cu  Cu76  1  0.36508040  0.49959562  0.01018867  1
  Cu  Cu77  1  0.34146021  0.36790636  0.03870119  1
  C  C78  1  0.34195309  0.45778662  0.08596220  1
  C  C79  1  0.37722628  0.41978360  0.22772536  1
  O  O80  1  0.35335802  0.41231145  0.07924279  1
  C  C81  1  0.34494167  0.47425752  0.12840419  1
  O  O82  1  0.32832150  0.48595876  0.05802789  1
  C  C83  1  0.36972613  0.26629060  0.02677062  1
  Cu  Cu84  1  0.48942885  0.42398204  0.22770921  1
  O  O85  1  0.34190217  0.29933696  0.04106212  1
  O  O86  1  0.38808481  0.37567106  0.21772939  1
  C  C87  1  0.36054848  0.43898185  0.15715047  1
  C  C88  1  0.36024648  0.45627731  0.19724664  1
  O  O89  1  0.49040931  0.38808381  0.18033997  1
  O  O90  1  0.46903544  0.44403150  0.13464511  1
  H  H91  1  0.37251317  0.40232595  0.14796232  1
  Cu  Cu92  1  0.40213585  0.31411584  0.24443113  1
  O  O93  1  0.12784808  0.04262104  0.36142764  1
  Cu  Cu94  1  0.13573923  0.09829782  0.39452447  1
  O  O95  1  0.07871502  0.08845741  0.41625857  1
  C  C96  1  0.04025868  0.10696797  0.40187679  1
  C  C97  1  0.16784147  0.03111549  0.29218989  1
  O  O98  1  0.14506384  0.15703100  0.42175900  1
  C  C99  1  0.15931952  0.02169007  0.34174225  1
  C  C100  1  0.20389131  0.05722358  0.27515623  1
  C  C101  1  0.17719062  0.17960569  0.44521692  1
  H  H102  1  0.08607655  0.15225053  0.46152655  1
  C  C103  1  0.05534376  0.17398151  0.45268721  1
  O  O104  1  0.19463401  0.15479015  0.47026323  1
  C  C105  1  0.02408195  0.15180320  0.42542163  1
  Cl  Cl106  1  0.22210347  0.07973229  0.36155211  1
  H  H107  1  0.23202764  0.07515962  0.29175806  1
  O  O108  1  0.01825242  0.08463852  0.37748506  1
  C  C109  1  0.19744012  0.22872177  0.42946045  1
  C  C110  1  0.13482497  0.00783409  0.26905036  1
  C  C111  1  0.04624979  0.22076336  0.46990958  1
  C  C112  1  0.24225393  0.23883092  0.43941443  1
  C  C113  1  0.00650969  0.24453789  0.46390132  1
  O  O114  1  0.25449045  0.23824489  0.32351818  1
  C  C115  1  0.34608337  0.00109009  0.32239103  1
  H  H116  1  0.26324374  0.21073300  0.45477737  1
  H  H117  1  0.35775404  0.09843757  0.46707167  1
  C  C118  1  0.37813842  0.09366157  0.40220688  1
  O  O119  1  0.40245589  0.16682913  0.43804838  1
  C  C120  1  0.40689150  0.14012136  0.40435614  1
  O  O121  1  0.42991897  0.15477094  0.37735504  1
  C  C122  1  0.37216011  0.07458958  0.36264543  1
  H  H123  1  0.39240494  0.08840254  0.33664244  1
  C  C124  1  0.35602030  0.07877805  0.43805772  1
  O  O125  1  0.36002355  0.02353703  0.29043608  1
  Cu  Cu126  1  0.39175357  0.23243922  0.44814462  1
  C  C127  1  0.32800426  0.03871317  0.43284491  1
  C  C128  1  0.34730218  0.02939641  0.36239204  1
  C  C129  1  0.30024707  0.02406091  0.46935716  1
  C  C130  1  0.32347528  0.01182084  0.39554471  1
  O  O131  1  0.49975576  0.11926517  0.49791125  1
  Cu  Cu132  1  0.49805090  0.18486074  0.47663118  1
  O  O133  1  0.41171305  0.24857189  0.26137938  1
  Cu  Cu134  1  0.31921980  0.06043833  0.25508130  1
  H  H135  1  0.00082441  0.28098696  0.48054082  1
  H  H136  1  0.13446767  0.25073125  0.40268959  1
  C  C137  1  0.17012064  0.26311037  0.40879961  1
  H  H138  1  0.07234752  0.38929069  0.32265592  1
  O  O139  1  0.12421375  0.34490257  0.37766967  1
  C  C140  1  0.07422308  0.41368020  0.29636684  1
  C  C141  1  0.16366591  0.34836315  0.37948809  1
  C  C142  1  0.19131673  0.30719318  0.39588446  1
  Cu  Cu143  1  0.18950743  0.45447666  0.35650957  1
  O  O144  1  0.18916750  0.38744426  0.36722166  1
  O  O145  1  0.11633710  0.32017425  0.28154615  1
  C  C146  1  0.05388612  0.46086228  0.29952955  1
  O  O147  1  0.02903075  0.45627589  0.36680628  1
  O  O148  1  0.21099936  0.47743670  0.41136268  1
  C  C149  1  0.03076199  0.48015970  0.33639877  1
  C  C150  1  0.24673937  0.47454762  0.43045424  1
  C  C151  1  0.23829442  0.31282225  0.39700782  1
  C  C152  1  0.05716571  0.49391025  0.26701929  1
  C  C153  1  0.09737567  0.39990969  0.26067423  1
  C  C154  1  0.11866126  0.34827907  0.25372538  1
  C  C155  1  0.26207397  0.28081201  0.42207915  1
  O  O156  1  0.37612186  0.43456597  0.26437856  1
  Cl  Cl157  1  0.25511840  0.44771335  0.31905090  1
  C  C158  1  0.25765262  0.27324282  0.30716587  1
  C  C159  1  0.48354594  0.30406819  0.35325045  1
  Cu  Cu160  1  0.30782634  0.48020358  0.36449164  1
  O  O161  1  0.46519430  0.38703794  0.40671187  1
  H  H162  1  0.25632234  0.34296195  0.37904487  1
  H  H163  1  0.31922773  0.47905934  0.48080051  1
  O  O164  1  0.28027571  0.45482763  0.41386838  1
  H  H165  1  0.41552005  0.49250027  0.30568329  1
  C  C166  1  0.31125432  0.28491242  0.42582182  1
  O  O167  1  0.49951933  0.25094296  0.45281297  1
  C  C168  1  0.44561410  0.42627023  0.41249036  1
  O  O169  1  0.33178978  0.25641363  0.44925901  1
  H  H170  1  0.44826757  0.30413739  0.34982246  1
  Cu  Cu171  1  0.32164245  0.43955395  0.29213721  1
  O  O172  1  0.33083224  0.31304404  0.40157270  1
  O  O173  1  0.44520500  0.33644229  0.28457661  1
  C  C174  1  0.47001044  0.47529427  0.40660256  1
  Cu  Cu175  1  0.36672465  0.37322657  0.40871106  1
  Cl  Cl176  1  0.34310550  0.40730193  0.35162546  1
  O  O177  1  0.43822083  0.26975512  0.41980251  1
  C  C178  1  0.48759483  0.34207426  0.28587283  1
  O  O179  1  0.40275601  0.42638393  0.41915658  1
  O  O180  1  0.48722717  0.46319928  0.27685581  1
  C  C181  1  0.48019359  0.26751914  0.42216675  1
  Cl  Cl182  1  0.27439172  0.33989709  0.27985687  1
  O  O183  1  0.10845288  0.12891422  0.69925143  1
  C  C184  1  0.15628912  0.19707327  0.71127258  1
  C  C185  1  0.14481351  0.15158303  0.69125403  1
  Cu  Cu186  1  0.09246841  0.07217846  0.66958596  1
  O  O187  1  0.17014384  0.13230328  0.66235692  1
  O  O188  1  0.04203730  0.05973366  0.70429420  1
  Cu  Cu189  1  0.23000158  0.11244166  0.67421956  1
  H  H190  1  0.20584606  0.21122065  0.66653822  1
  O  O191  1  0.09200710  0.02282436  0.63032356  1
  C  C192  1  0.04516877  0.01846303  0.72358170  1
  C  C193  1  0.13504638  0.21359097  0.74750618  1
  C  C194  1  0.19123254  0.22476681  0.69481334  1
  C  C195  1  0.22758054  0.04054969  0.74466128  1
  O  O196  1  0.24030078  0.05927767  0.70881810  1
  O  O197  1  0.12036472  0.22660286  0.50599243  1
  C  C198  1  0.08230377  0.24328562  0.50011736  1
  O  O199  1  0.27968574  0.16618092  0.59462694  1
  O  O200  1  0.28633308  0.12431696  0.65265517  1
  H  H201  1  0.47856518  0.16628691  0.59045475  1
  C  C202  1  0.30201240  0.14446391  0.61896700  1
  C  C203  1  0.46041000  0.11870348  0.66059160  1
  H  H204  1  0.36968614  0.11112311  0.66571699  1
  C  C205  1  0.35095956  0.14999454  0.61031359  1
  C  C206  1  0.38056715  0.13214450  0.63960122  1
  C  C207  1  0.36442035  0.17477862  0.57421515  1
  C  C208  1  0.42585033  0.14002462  0.63134868  1
  C  C209  1  0.40989236  0.18130309  0.56844222  1
  C  C210  1  0.44180702  0.16384302  0.59693998  1
  O  O211  1  0.44350767  0.09407716  0.69160083  1
  H  H212  1  0.34000973  0.18685644  0.54922295  1
  O  O213  1  0.46278586  0.21120285  0.51990771  1
  C  C214  1  0.42102135  0.20631186  0.53005406  1
  H  H215  1  0.45550665  0.06251130  0.54184374  1
  C  C216  1  0.47654589  0.02721142  0.59790301  1
  Cu  Cu217  1  0.42521825  0.02784374  0.68916011  1
  O  O218  1  0.40055066  0.02177330  0.57943859  1
  H  H219  1  0.45912683  0.23317100  0.72340395  1
  C  C220  1  0.42865466  0.01290969  0.60329310  1
  C  C221  1  0.36898610  0.23837284  0.74240350  1
  C  C222  1  0.48336328  0.05637580  0.56329870  1
  O  O223  1  0.49908495  0.12768594  0.65884285  1
  H  H224  1  0.30485768  0.02276074  0.71827015  1
  C  C225  1  0.30110179  0.00154173  0.74708136  1
  O  O226  1  0.32677138  0.24827066  0.74501600  1
  C  C227  1  0.43827080  0.24686413  0.69823074  1
  C  C228  1  0.39158573  0.24812317  0.70253585  1
  O  O229  1  0.29852308  0.04882634  0.50017044  1
  O  O230  1  0.39174090  0.22532527  0.50772049  1
  O  O231  1  0.00958935  0.36522879  0.70946329  1
  C  C232  1  0.10465472  0.47603297  0.66816350  1
  C  C233  1  0.20816674  0.26720505  0.71530808  1
  H  H234  1  0.17940618  0.38172607  0.67235302  1
  C  C235  1  0.18311213  0.44518291  0.62868922  1
  C  C236  1  0.16595448  0.41630700  0.66130633  1
  C  C237  1  0.12826282  0.43376942  0.68233858  1
  C  C238  1  0.11538244  0.40877897  0.72165223  1
  C  C239  1  0.22493696  0.42066947  0.61142254  1
  O  O240  1  0.24750015  0.43620960  0.58397421  1
  O  O241  1  0.23696003  0.37962538  0.63127382  1
  O  O242  1  0.13709405  0.37227080  0.72894905  1
  C  C243  1  0.24814879  0.29221585  0.69867922  1
  C  C244  1  0.16188193  0.48839722  0.61449983  1
  O  O245  1  0.06942452  0.28129819  0.51821547  1
  H  H246  1  0.07430034  0.48712310  0.68476290  1
  O  O247  1  0.07854305  0.42104787  0.73956268  1
  C  C248  1  0.38436904  0.27390612  0.63431783  1
  Cl  Cl249  1  0.37577441  0.39122277  0.73335472  1
  C  C250  1  0.44329509  0.40897617  0.72788045  1
  O  O251  1  0.25840014  0.28177401  0.66110389  1
  H  H252  1  0.44576245  0.28519313  0.59980557  1
  C  C253  1  0.35990752  0.28809164  0.59562591  1
  O  O254  1  0.31598544  0.28179839  0.59609378  1
  C  C255  1  0.46825252  0.39611710  0.69435338  1
  H  H256  1  0.32736140  0.25927643  0.67356227  1
  O  O257  1  0.37759216  0.30760305  0.56690112  1
  O  O258  1  0.26917561  0.31858894  0.72193529  1
  C  C259  1  0.36326782  0.25858163  0.66983042  1
  C  C260  1  0.43080195  0.27463375  0.62913737  1
  Cu  Cu261  1  0.27316173  0.32707300  0.61358217  1
  H  H262  1  0.45465367  0.37233163  0.66999950  1
  C  C263  1  0.45825140  0.26069520  0.66231657  1
  O  O264  1  0.09821377  0.15605454  0.82603828  1
  C  C265  1  0.11122019  0.11329619  0.84287468  1
  O  O266  1  0.13139381  0.11115585  0.87368717  1
  C  C267  1  0.07844976  0.06619054  0.78208508  1
  C  C268  1  0.10187710  0.06715459  0.81813844  1
  Cu  Cu269  1  0.08177968  0.21255054  0.85615632  1
  H  H270  1  0.06984104  0.10085736  0.76639974  1
  C  C271  1  0.11567758  0.02167130  0.83683466  1
  H  H272  1  0.13355876  0.02272506  0.86670502  1
  O  O273  1  0.19118245  0.04520957  0.75793262  1
  C  C274  1  0.06907954  0.02110535  0.76166351  1
  H  H275  1  0.10426858  0.19500408  0.75934465  1
  O  O276  1  0.43579616  0.10136381  0.96613084  1
  O  O277  1  0.37911425  0.05114030  0.96629289  1
  C  C278  1  0.39777677  0.09422419  0.97381339  1
  H  H279  1  0.41490876  0.19505119  0.99306575  1
  C  C280  1  0.26077738  0.01018794  0.76849020  1
  C  C281  1  0.36840571  0.13276770  0.99505961  1
  H  H282  1  0.31858156  0.07571104  0.99969856  1
  O  O283  1  0.38871514  0.22530900  0.77201863  1
  O  O284  1  0.08885342  0.25668054  0.81397604  1
  C  C285  1  0.00597540  0.26181575  0.98954427  1
  O  O286  1  0.09537958  0.26633339  0.95641224  1
  C  C287  1  0.01564034  0.26549235  0.94824312  1
  C  C288  1  0.06415968  0.26321664  0.93349565  1
  C  C289  1  0.05247159  0.49730684  0.95177045  1
  O  O290  1  0.05739888  0.47669392  0.91731351  1
  Cu  Cu291  1  0.03341599  0.38230965  0.76090871  1
  O  O292  1  0.06841366  0.26221488  0.89364573  1
  C  C293  1  0.12714266  0.27590753  0.80555062  1
  O  O294  1  0.14287377  0.31014472  0.82368356  1
  Cl  Cl295  1  0.15215652  0.43616552  0.94679583  1
  O  O296  1  0.04114652  0.38651143  0.88277376  1
  C  C297  1  0.03000986  0.40127283  0.84747594  1
  O  O298  1  0.05237190  0.39481388  0.81640593  1
  Cu  Cu299  1  0.08726325  0.41903065  0.91082670  1
  H  H300  1  0.01669775  0.47311620  0.78718147  1
  C  C301  1  0.15103461  0.25615750  0.76580080  1
  H  H302  1  0.20128925  0.31399015  0.76801275  1
  O  O303  1  0.07059424  0.48038251  0.98293485  1
  Cu  Cu304  1  0.12850359  0.49088721  0.99741934  1
  C  C305  1  0.18834743  0.28173520  0.75226510  1
  C  C306  1  0.38805584  0.49893207  0.83357036  1
  O  O307  1  0.33334663  0.37761395  0.98259463  1
  H  H308  1  0.32520296  0.42992462  0.80182605  1
  Cu  Cu309  1  0.30006150  0.30439218  0.76967801  1
  C  C310  1  0.35960799  0.46056534  0.85563397  1
  C  C311  1  0.31214144  0.39164139  0.90208147  1
  C  C312  1  0.35273705  0.41339722  0.96478580  1
  H  H313  1  0.29455252  0.36275333  0.91855259  1
  H  H314  1  0.44238737  0.44821859  0.78551582  1
  O  O315  1  0.25745190  0.33036182  0.86202043  1
  O  O316  1  0.37847774  0.44232912  0.98394005  1
  C  C317  1  0.46258649  0.43525125  0.75771214  1
  O  O318  1  0.27395482  0.35459477  0.79913245  1
  H  H319  1  0.39445219  0.48207874  0.91135822  1
  C  C320  1  0.36716092  0.45868389  0.89735017  1
  C  C321  1  0.32813534  0.43092151  0.83561265  1
  C  C322  1  0.34368249  0.42378661  0.92098916  1
  C  C323  1  0.27594246  0.35786417  0.83929159  1
  O  O324  1  0.47722716  0.49106495  0.95567673  1
  C  C325  1  0.30658932  0.39598492  0.85936740  1
  C  C326  1  0.19668874  0.55453155  0.12110303  1
  C  C327  1  0.15319447  0.70311568  0.06505343  1
  H  H328  1  0.19162430  0.59530635  0.11486920  1
  O  O329  1  0.05521830  0.55276022  0.19470061  1
  C  C330  1  0.20500001  0.57827495  0.19278996  1
  O  O331  1  0.20209898  0.62510283  0.18271537  1
  Cu  Cu332  1  0.21774749  0.62924298  0.03218379  1
  O  O333  1  0.17845782  0.57783981  0.04148613  1
  O  O334  1  0.18721068  0.67272932  0.06964172  1
  Cl  Cl335  1  0.11820863  0.68571415  0.11962126  1
  C  C336  1  0.20726880  0.53970339  0.16124080  1
  O  O337  1  0.20809135  0.56385148  0.22977473  1
  C  C338  1  0.18554637  0.53187155  0.04804822  1
  O  O339  1  0.02304033  0.62587987  0.06863797  1
  H  H340  1  0.04797663  0.55046739  0.01889273  1
  O  O341  1  0.01330674  0.69363889  0.16919197  1
  C  C342  1  0.19387862  0.51835079  0.09021943  1
  C  C343  1  0.08025293  0.51214594  0.19484226  1
  C  C344  1  0.00003412  0.73698901  0.16541962  1
  Cu  Cu345  1  0.01828804  0.65620384  0.11968351  1
  O  O346  1  0.14866754  0.73800270  0.04367982  1
  O  O347  1  0.14743801  0.72020169  0.24874388  1
  Cu  Cu348  1  0.25036913  0.66771330  0.17756306  1
  H  H349  1  0.33762193  0.51336045  0.23970806  1
  O  O350  1  0.26051117  0.67989927  0.02724523  1
  H  H351  1  0.28902800  0.70329653  0.10231993  1
  O  O352  1  0.28676745  0.61229881  0.16393353  1
  H  H353  1  0.32001392  0.55053238  0.11668121  1
  O  O354  1  0.29704974  0.71439540  0.17454888  1
  C  C355  1  0.41167275  0.66382357  0.08351669  1
  C  C356  1  0.39954764  0.68006233  0.12292005  1
  C  C357  1  0.30413038  0.58562490  0.19038418  1
  C  C358  1  0.32515435  0.53725773  0.18020364  1
  H  H359  1  0.42354391  0.69042249  0.14604989  1
  C  C360  1  0.35322362  0.68948027  0.12780165  1
  C  C361  1  0.33763388  0.70625771  0.16906425  1
  C  C362  1  0.32197849  0.68867081  0.09576724  1
  C  C363  1  0.33323363  0.67180280  0.05699026  1
  C  C364  1  0.45840471  0.65530619  0.07109788  1
  C  C365  1  0.37807152  0.65721724  0.05299976  1
  O  O366  1  0.36478890  0.70440221  0.19837880  1
  O  O367  1  0.46340670  0.64197078  0.03386808  1
  O  O368  1  0.30091944  0.59429366  0.22856419  1
  C  C369  1  0.30063558  0.66729101  0.02300119  1
  C  C370  1  0.32955927  0.52136466  0.13933819  1
  H  H371  1  0.38893247  0.64170621  0.02304123  1
  O  O372  1  0.49162181  0.66211889  0.09371102  1
  C  C373  1  0.33987443  0.50158873  0.20801623  1
  O  O374  1  0.45310151  0.52013469  0.01788954  1
  C  C375  1  0.17611148  0.75809180  0.24194895  1
  Cl  Cl376  1  0.17597807  0.77374376  0.17914877  1
  Cu  Cu377  1  0.08676900  0.77256815  0.15978560  1
  O  O378  1  0.02476821  0.77179318  0.15042397  1
  O  O379  1  0.07361905  0.83079899  0.19145882  1
  H  H380  1  0.14793994  0.89132381  0.20008544  1
  C  C381  1  0.22833125  0.94893072  0.02066860  1
  O  O382  1  0.22702671  0.93050987  0.20255392  1
  H  H383  1  0.19605439  0.95203460  0.03377264  1
  C  C384  1  0.22248794  0.92642953  0.23771929  1
  C  C385  1  0.14803545  0.88161794  0.23370024  1
  C  C386  1  0.07263939  0.83385704  0.23164333  1
  C  C387  1  0.09516385  0.99584622  0.20549199  1
  O  O388  1  0.06825063  0.97672977  0.22830476  1
  O  O389  1  0.49280984  0.86907531  0.02570119  1
  O  O390  1  0.46329338  0.79697682  0.16286564  1
  H  H391  1  0.33848887  0.97645954  0.03732660  1
  O  O392  1  0.39409458  0.80116597  0.18447437  1
  H  H393  1  0.36129303  0.87848321  0.19486273  1
  C  C394  1  0.39493705  0.95405673  0.19018851  1
  C  C395  1  0.43130333  0.87853737  0.17406937  1
  C  C396  1  0.39214994  0.90183570  0.18703454  1
  C  C397  1  0.43129120  0.82046785  0.17243040  1
  C  C398  1  0.47146721  0.90194108  0.16572043  1
  C  C399  1  0.26714259  0.97112738  0.03618609  1
  C  C400  1  0.35379064  0.98020669  0.20431601  1
  Cu  Cu401  1  0.39378256  0.75600683  0.22738927  1
  C  C402  1  0.43257367  0.98126964  0.17752844  1
  C  C403  1  0.31041857  0.96284645  0.02078303  1
  O  O404  1  0.32191506  0.95002741  0.21312578  1
  C  C405  1  0.47212230  0.95559672  0.16816510  1
  H  H406  1  0.45707319  0.89810040  0.24795857  1
  C  C407  1  0.17227873  0.68075171  0.35829915  1
  C  C408  1  0.17143813  0.62852153  0.35650757  1
  C  C409  1  0.16316701  0.60313031  0.31993479  1
  H  H410  1  0.18074579  0.60824025  0.38479765  1
  O  O411  1  0.19008743  0.67839451  0.42872046  1
  C  C412  1  0.15551142  0.63313734  0.28447927  1
  H  H413  1  0.18495479  0.53437109  0.45990448  1
  C  C414  1  0.18084873  0.70358433  0.39743976  1
  C  C415  1  0.16089474  0.54774492  0.31500391  1
  C  C416  1  0.15371614  0.68509222  0.28625297  1
  C  C417  1  0.16323991  0.70922280  0.32253640  1
  Cu  Cu418  1  0.15908198  0.66724983  0.47632218  1
  C  C419  1  0.21572567  0.53502822  0.47952411  1
  O  O420  1  0.01203473  0.52376068  0.33494874  1
  O  O421  1  0.17660276  0.52379372  0.34729533  1
  O  O422  1  0.15278421  0.52640011  0.28412257  1
  H  H423  1  0.04028718  0.53420770  0.26909369  1
  O  O424  1  0.01008573  0.66030331  0.43137169  1
  H  H425  1  0.14875033  0.61873154  0.25332324  1
  C  C426  1  0.25166956  0.50621342  0.46837789  1
  C  C427  1  0.29181757  0.50187101  0.48980932  1
  O  O428  1  0.33383668  0.50121370  0.31797041  1
  Cu  Cu429  1  0.25834863  0.56790525  0.26529122  1
  C  C430  1  0.46766256  0.56137522  0.41427615  1
  C  C431  1  0.46157910  0.54658555  0.28507781  1
  C  C432  1  0.33880520  0.54578935  0.30679514  1
  C  C433  1  0.38315281  0.56526619  0.29723887  1
  O  O434  1  0.30356990  0.57243024  0.30482235  1
  C  C435  1  0.38982144  0.61689297  0.29015309  1
  Cu  Cu436  1  0.44644234  0.70952944  0.43902203  1
  C  C437  1  0.44161992  0.60755821  0.42769667  1
  H  H438  1  0.36578886  0.64798550  0.29301297  1
  O  O439  1  0.45697878  0.65180401  0.41727900  1
  C  C440  1  0.43375179  0.63059019  0.28263695  1
  O  O441  1  0.40976093  0.59989369  0.44851652  1
  C  C442  1  0.46887572  0.59759581  0.27887827  1
  C  C443  1  0.43907905  0.68501274  0.27640952  1
  O  O444  1  0.40267809  0.71044749  0.26925415  1
  C  C445  1  0.41912085  0.53193930  0.29729425  1
  C  C446  1  0.44455356  0.51549958  0.41823082  1
  H  H447  1  0.41074321  0.51004472  0.43172967  1
  C  C448  1  0.49730342  0.50871765  0.28199110  1
  O  O449  1  0.47597407  0.70322583  0.27640274  1
  H  H450  1  0.16261780  0.75038650  0.32608282  1
  O  O451  1  0.18075191  0.75084680  0.39879855  1
  O  O452  1  0.17527819  0.98407364  0.35948892  1
  O  O453  1  0.20519260  0.77594216  0.26116992  1
  Cu  Cu454  1  0.01591456  0.89029499  0.45707739  1
  H  H455  1  0.08367894  0.82384622  0.30806364  1
  O  O456  1  0.12092734  0.91666489  0.44096103  1
  O  O457  1  0.12060036  0.82567854  0.37369971  1
  O  O458  1  0.17549415  0.88013124  0.38326704  1
  C  C459  1  0.14914553  0.85873136  0.35953655  1
  Cu  Cu460  1  0.15032192  0.94666079  0.40033982  1
  Cu  Cu461  1  0.14019710  0.80086366  0.42362493  1
  H  H462  1  0.20640818  0.91478621  0.32003221  1
  C  C463  1  0.14761192  0.86707620  0.31501094  1
  C  C464  1  0.18190258  0.89722868  0.30028100  1
  C  C465  1  0.11021556  0.84655820  0.29362171  1
  C  C466  1  0.09986717  0.93066056  0.47315300  1
  C  C467  1  0.18266243  0.89984261  0.25732171  1
  O  O468  1  0.05762744  0.93585754  0.47106862  1
  O  O469  1  0.15614309  0.78033787  0.47617892  1
  C  C470  1  0.11080094  0.85850371  0.25204252  1
  Cl  Cl471  1  0.06353988  0.77509940  0.48461463  1
  H  H472  1  0.18600129  0.92933989  0.48175682  1
  O  O473  1  0.03975973  0.82013783  0.25034448  1
  H  H474  1  0.10493509  0.98785964  0.28365594  1
  O  O475  1  0.25179298  0.94471737  0.26411816  1
  H  H476  1  0.29924293  0.98233409  0.39145821  1
  C  C477  1  0.43394970  0.84175209  0.29405993  1
  O  O478  1  0.32371310  0.96230917  0.32035545  1
  Cu  Cu479  1  0.31272923  0.92335784  0.26832453  1
  C  C480  1  0.46457929  0.86837821  0.27105249  1
  C  C481  1  0.48804185  0.79960544  0.33636645  1
  O  O482  1  0.28025178  0.97871971  0.46723352  1
  O  O483  1  0.45995569  0.75523276  0.39214660  1
  C  C484  1  0.49531806  0.76903376  0.37444057  1
  C  C485  1  0.38389992  0.85547720  0.29064125  1
  O  O486  1  0.35586469  0.83009552  0.30547567  1
  H  H487  1  0.41648365  0.87156318  0.47567959  1
  O  O488  1  0.47861720  0.87168418  0.42619791  1
  Cu  Cu489  1  0.31409073  0.92806568  0.49164377  1
  O  O490  1  0.42991488  0.76352020  0.47154735  1
  O  O491  1  0.36981602  0.89477831  0.27087562  1
  H  H492  1  0.41524727  0.79074713  0.34487324  1
  C  C493  1  0.44388347  0.80812580  0.32656575  1
  C  C494  1  0.48603418  0.87744225  0.49631013  1
  O  O495  1  0.08082381  0.67445209  0.60620572  1
  C  C496  1  0.05646457  0.66836962  0.63720381  1
  Cu  Cu497  1  0.12658608  0.63586173  0.58785047  1
  C  C498  1  0.06499889  0.68952865  0.67702686  1
  O  O499  1  0.10266648  0.57010017  0.59172947  1
  O  O500  1  0.17743263  0.60920042  0.56485022  1
  C  C501  1  0.18205747  0.59415613  0.52844806  1
  C  C502  1  0.10420016  0.71561535  0.68557986  1
  O  O503  1  0.06580641  0.56085346  0.64997302  1
  C  C504  1  0.03097494  0.68327116  0.70636760  1
  C  C505  1  0.22095474  0.56327679  0.51612514  1
  C  C506  1  0.09745065  0.54766349  0.62569190  1
  O  O507  1  0.01820298  0.64517874  0.63364505  1
  H  H508  1  0.13180508  0.71897729  0.66280372  1
  C  C509  1  0.10940642  0.73266530  0.72547109  1
  C  C510  1  0.04004194  0.70233696  0.74491238  1
  C  C511  1  0.12406497  0.50441416  0.63683541  1
  O  O512  1  0.13310323  0.71161994  0.50841357  1
  O  O513  1  0.15391306  0.60501814  0.50167904  1
  H  H514  1  0.17610694  0.50751986  0.58665461  1
  Cu  Cu515  1  0.00611946  0.57608727  0.63293279  1
  O  O516  1  0.36944210  0.50072841  0.55292892  1
  C  C517  1  0.25886173  0.55812287  0.54043476  1
  H  H518  1  0.26346893  0.57526257  0.57118637  1
  O  O519  1  0.25278791  0.72264890  0.72290629  1
  C  C520  1  0.29431421  0.70409862  0.72318779  1
  O  O521  1  0.31351618  0.69490604  0.69248081  1
  H  H522  1  0.37506065  0.66440944  0.73047293  1
  C  C523  1  0.29287145  0.52712849  0.52644361  1
  O  O524  1  0.32937732  0.55465256  0.58528818  1
  C  C525  1  0.33397596  0.52513123  0.55640487  1
  O  O526  1  0.17285558  0.77387066  0.70494278  1
  C  C527  1  0.09894236  0.97469749  0.62537179  1
  O  O528  1  0.02299565  0.82528993  0.62317745  1
  H  H529  1  0.20791315  0.79690996  0.54585225  1
  C  C530  1  0.18070882  0.82039792  0.60383337  1
  C  C531  1  0.17800073  0.80243664  0.56291969  1
  O  O532  1  0.06759153  0.85374393  0.67208490  1
  C  C533  1  0.05999909  0.83409920  0.63575484  1
  C  C534  1  0.10156739  0.82148710  0.61003828  1
  C  C535  1  0.09563304  0.80256060  0.56994058  1
  C  C536  1  0.14212725  0.83106539  0.62725124  1
  H  H537  1  0.14556639  0.84282736  0.65946998  1
  C  C538  1  0.19346935  0.92964387  0.54593653  1
  H  H539  1  0.06246570  0.79202211  0.55812212  1
  C  C540  1  0.13630401  0.79231409  0.54831412  1
  Cu  Cu541  1  0.04612401  0.91666288  0.68871337  1
  C  C542  1  0.12238620  0.93748342  0.51193392  1
  C  C543  1  0.10234928  0.95294350  0.54925437  1
  C  C544  1  0.17238977  0.94239642  0.58453460  1
  C  C545  1  0.12622874  0.95587676  0.58542850  1
  H  H546  1  0.19543033  0.94826150  0.61132130  1
  C  C547  1  0.22353097  0.82627391  0.62322105  1
  C  C548  1  0.16867739  0.93254545  0.51015997  1
  O  O549  1  0.06338958  0.94866652  0.63610147  1
  C  C550  1  0.14886250  0.76187986  0.73518319  1
  H  H551  1  0.06750037  0.96363128  0.55807744  1
  O  O552  1  0.22890787  0.83616824  0.66116109  1
  O  O553  1  0.02112208  0.89271436  0.73876505  1
  Cl  Cl554  1  0.15287826  0.96005664  0.67233023  1
  O  O555  1  0.02653539  0.97818786  0.71089411  1
  C  C556  1  0.13372205  0.76002388  0.50626858  1
  C  C557  1  0.24067946  0.91703166  0.54517200  1
  Cu  Cu558  1  0.23873972  0.78029842  0.69636689  1
  C  C559  1  0.42272571  0.88417130  0.54031677  1
  C  C560  1  0.49823172  0.88832147  0.56561019  1
  C  C561  1  0.43154628  0.76242451  0.51164002  1
  H  H562  1  0.44513936  0.76280716  0.59584519  1
  H  H563  1  0.43917138  0.89781440  0.60536901  1
  O  O564  1  0.35212686  0.87755639  0.51192351  1
  C  C565  1  0.37395369  0.88437470  0.54457354  1
  O  O566  1  0.37862936  0.98941450  0.70712357  1
  C  C567  1  0.45159010  0.89291105  0.57327899  1
  Cu  Cu568  1  0.46988722  0.77389622  0.71792780  1
  Cu  Cu569  1  0.44876193  0.89861090  0.74409949  1
  O  O570  1  0.25873460  0.81696146  0.60276045  1
  C  C571  1  0.47448946  0.76935281  0.57602690  1
  O  O572  1  0.39929795  0.76097711  0.53294502  1
  O  O573  1  0.47880855  0.77898281  0.65896390  1
  C  C574  1  0.37476600  0.80887323  0.73113113  1
  O  O575  1  0.40999313  0.77896221  0.72824097  1
  C  C576  1  0.47515655  0.76699308  0.53328279  1
  H  H577  1  0.29285291  0.84953902  0.74867706  1
  O  O578  1  0.36245192  0.83698490  0.70489786  1
  Cu  Cu579  1  0.30143150  0.86450524  0.59393890  1
  C  C580  1  0.37611432  0.96767571  0.74155058  1
  O  O581  1  0.26304354  0.91957780  0.57777626  1
  O  O582  1  0.35325658  0.89238051  0.57755634  1
  O  O583  1  0.48474753  0.84734032  0.72858703  1
  O  O584  1  0.25922075  0.90302210  0.51163508  1
  O  O585  1  0.42260260  0.99039427  0.64045080  1
  C  C586  1  0.44005122  0.87891512  0.50004953  1
  O  O587  1  0.01355778  0.71777572  0.80999133  1
  C  C588  1  0.02483146  0.54347662  0.95655158  1
  H  H589  1  0.08874567  0.73312311  0.78927979  1
  C  C590  1  0.00412012  0.70046079  0.77738868  1
  C  C591  1  0.02470815  0.56602269  0.99496338  1
  C  C592  1  0.08179880  0.72108839  0.75752691  1
  O  O593  1  0.38246186  0.50429787  0.79791404  1
  O  O594  1  0.25343394  0.69351383  0.87804591  1
  H  H595  1  0.25479913  0.70333546  0.80158103  1
  C  C596  1  0.28975076  0.69386001  0.80082140  1
  C  C597  1  0.29178580  0.68538694  0.87718914  1
  O  O598  1  0.31753282  0.67262159  0.90779803  1
  H  H599  1  0.37256104  0.64852807  0.86453621  1
  C  C600  1  0.35711091  0.66075572  0.83468249  1
  C  C601  1  0.31422609  0.68012762  0.83476654  1
  O  O602  1  0.44873446  0.62136216  0.82815884  1
  Cu  Cu603  1  0.34072491  0.71056018  0.95211208  1
  Cl  Cl604  1  0.41733052  0.69058468  0.96644514  1
  C  C605  1  0.38021260  0.65443425  0.79721285  1
  C  C606  1  0.42710952  0.63498297  0.79387811  1
  Cu  Cu607  1  0.47707590  0.55592510  0.82622486  1
  Cu  Cu608  1  0.46203239  0.71816981  0.90981730  1
  C  C609  1  0.31416971  0.68921752  0.76321585  1
  Cl  Cl610  1  0.40539760  0.56361343  0.95615424  1
  O  O611  1  0.44624127  0.63887320  0.76251911  1
  Cu  Cu612  1  0.48714815  0.67347901  0.98758222  1
  C  C613  1  0.35779425  0.67007450  0.76117323  1
  O  O614  1  0.41475349  0.74150629  0.87822272  1
  O  O615  1  0.42096591  0.52395867  0.85280966  1
  O  O616  1  0.31752270  0.65547594  0.98918351  1
  C  C617  1  0.45140205  0.51239545  0.98208012  1
  C  C618  1  0.12906736  0.92961491  0.82733390  1
  O  O619  1  0.14979352  0.93110736  0.86193320  1
  O  O620  1  0.12256564  0.88752611  0.81188137  1
  O  O621  1  0.20209251  0.86872977  0.93501979  1
  Cu  Cu622  1  0.19849955  0.89478592  0.88054327  1
  O  O623  1  0.22563052  0.83772683  0.85187882  1
  C  C624  1  0.19525670  0.89283797  0.96959078  1
  O  O625  1  0.16089957  0.89973623  0.98563921  1
  C  C626  1  0.08488012  0.97583248  0.77880590  1
  Cu  Cu627  1  0.15937988  0.84724347  0.78453163  1
  C  C628  1  0.23622892  0.91718987  0.98750364  1
  H  H629  1  0.07638499  0.94075703  0.76301995  1
  C  C630  1  0.10963961  0.97768946  0.81442935  1
  O  O631  1  0.15411845  0.77845921  0.77142746  1
  O  O632  1  0.22279278  0.85500057  0.78491786  1
  O  O633  1  0.00629567  0.81472451  0.75793559  1
  C  C634  1  0.24328840  0.83960920  0.81620883  1
  H  H635  1  0.22288424  0.99676354  0.82330020  1
  O  O636  1  0.24995797  0.93954890  0.88312376  1
  C  C637  1  0.27768960  0.90679814  0.97010232  1
  O  O638  1  0.35887325  0.76639905  0.91588585  1
  H  H639  1  0.35218868  0.92453557  0.81249135  1
  C  C640  1  0.31394167  0.93069176  0.98773866  1
  C  C641  1  0.35290387  0.78557815  0.84477640  1
  O  O642  1  0.38998150  0.95226261  0.98340689  1
  O  O643  1  0.31608192  0.90304117  0.87336055  1
  H  H644  1  0.29109137  0.80206461  0.87643958  1
  C  C645  1  0.28663700  0.95700713  0.82215913  1
  H  H646  1  0.40576686  0.76538673  0.79998162  1
  C  C647  1  0.33423281  0.97012197  0.76230813  1
  O  O648  1  0.47920369  0.95593122  0.85121133  1
  Cu  Cu649  1  0.40853774  0.99692535  0.94190505  1
  O  O650  1  0.40940060  0.94858333  0.76078944  1
  O  O651  1  0.43460858  0.94186551  0.90673687  1
  C  C652  1  0.35947976  0.92367658  0.97248537  1
  C  C653  1  0.32628954  0.94815302  0.80010386  1
  H  H654  1  0.28527571  0.88557092  0.94294554  1
  H  H655  1  0.47344818  0.90465022  0.95506709  1
  C  C656  1  0.31034215  0.80444823  0.84777369  1
  C  C657  1  0.37846184  0.76575824  0.88153343  1
  Cl  Cl658  1  0.43001362  0.85494260  0.85359708  1
  C  C659  1  0.31072796  0.82982655  0.77430918  1
  C  C660  1  0.25408334  0.98964614  0.80616688  1
  C  C661  1  0.47958793  0.93228569  0.88112140  1
  C  C662  1  0.37326228  0.78335338  0.80586918  1
  Cu  Cu663  1  0.37582675  0.92317497  0.89057374  1
  C  C664  1  0.35168120  0.80815743  0.77136846  1
  C  C665  1  0.28975517  0.82513459  0.81285083  1
  O  O666  1  0.36479413  0.89582330  0.94065470  1
  C  C667  1  0.28418241  0.93265999  0.86175367  1
  Cu  Cu668  1  0.56223605  0.07204216  0.16358643  1
  O  O669  1  0.61005892  0.05227712  0.18964687  1
  O  O670  1  0.54967360  0.19700411  0.20271168  1
  O  O671  1  0.55916111  0.13946503  0.15544548  1
  H  H672  1  0.64054043  0.12091863  0.22279550  1
  C  C673  1  0.59734760  0.03692502  0.22413302  1
  O  O674  1  0.51152830  0.03220758  0.16018263  1
  C  C675  1  0.53471364  0.16968147  0.17789251  1
  O  O676  1  0.67507517  0.20861170  0.23870538  1
  C  C677  1  0.62019880  0.11960906  0.24912668  1
  O  O678  1  0.74711344  0.01548203  0.17032472  1
  C  C679  1  0.78541663  0.00534597  0.16554036  1
  H  H680  1  0.77401535  0.10789672  0.16314526  1
  C  C681  1  0.94499563  0.04965580  0.13858049  1
  O  O682  1  0.79647606  0.20905912  0.16355410  1
  C  C683  1  0.89802875  0.06757252  0.14933694  1
  C  C684  1  0.84338060  0.13347536  0.15621141  1
  C  C685  1  0.83356841  0.18773642  0.15887103  1
  O  O686  1  0.86731394  0.21453343  0.15095412  1
  H  H687  1  0.91561363  0.14684639  0.14892265  1
  C  C688  1  0.88811634  0.11775489  0.15241401  1
  C  C689  1  0.80873504  0.09796742  0.15903322  1
  C  C690  1  0.81992182  0.04776263  0.16019338  1
  O  O691  1  0.98121208  0.07547036  0.13733170  1
  C  C692  1  0.86341327  0.03190022  0.15445431  1
  Cu  Cu693  1  0.88481565  0.23285501  0.10107256  1
  O  O694  1  0.94732654  0.00479442  0.13815912  1
  Cu  Cu695  1  0.65228983  0.25213712  0.19741614  1
  O  O696  1  0.63524529  0.26431794  0.09776915  1
  O  O697  1  0.61760448  0.28692447  0.16166844  1
  C  C698  1  0.61512806  0.28906894  0.12124936  1
  C  C699  1  0.71203211  0.48923897  0.19153716  1
  H  H700  1  0.55700574  0.34523861  0.16260751  1
  C  C701  1  0.72668449  0.46307388  0.15656723  1
  H  H702  1  0.60245145  0.30362843  0.04319920  1
  C  C703  1  0.57860012  0.32776799  0.06184078  1
  C  C704  1  0.58060637  0.32471821  0.10369846  1
  C  C705  1  0.71015168  0.33170280  0.18099168  1
  O  O706  1  0.69158345  0.30455670  0.20860759  1
  C  C707  1  0.70676035  0.38499246  0.18109639  1
  C  C708  1  0.55229599  0.34913448  0.13085275  1
  C  C709  1  0.55035177  0.36533916  0.04724810  1
  C  C710  1  0.72851701  0.41095373  0.15020991  1
  C  C711  1  0.68991991  0.46151615  0.22190346  1
  C  C712  1  0.68244816  0.41016874  0.21363115  1
  C  C713  1  0.51967005  0.38085850  0.11307084  1
  C  C714  1  0.51723289  0.38937328  0.07118565  1
  Cl  Cl715  1  0.59352757  0.44746754  0.22368057  1
  H  H716  1  0.66744350  0.38589652  0.23904549  1
  O  O717  1  0.73392665  0.31202322  0.15229531  1
  H  H718  1  0.74748648  0.39118663  0.12527476  1
  C  C719  1  0.55014425  0.37745971  0.00230164  1
  C  C720  1  0.74493874  0.49225437  0.12121792  1
  O  O721  1  0.74750987  0.47270628  0.08796662  1
  C  C722  1  0.94428375  0.25015048  0.04077780  1
  O  O723  1  0.90213388  0.25176253  0.04924513  1
  O  O724  1  0.97407042  0.25696205  0.06775251  1
  C  C725  1  0.93966647  0.35681084  0.24868572  1
  C  C726  1  0.93239638  0.43484052  0.21084889  1
  H  H727  1  0.94316527  0.47128941  0.09530986  1
  O  O728  1  0.83838305  0.40176247  0.16167851  1
  O  O729  1  0.92640883  0.38443882  0.14079696  1
  C  C730  1  0.80329255  0.40862788  0.22546135  1
  C  C731  1  0.88795886  0.49090069  0.05517454  1
  C  C732  1  0.93385837  0.38301818  0.21224674  1
  C  C733  1  0.80570496  0.46097615  0.22464584  1
  Cu  Cu734  1  0.96121622  0.28264395  0.11874260  1
  C  C735  1  0.87357711  0.43956010  0.04501208  1
  C  C736  1  0.93794884  0.35815772  0.17250169  1
  O  O737  1  0.81683587  0.33166334  0.19468579  1
  C  C738  1  0.93134553  0.46238139  0.24796053  1
  H  H739  1  0.92811333  0.45712957  0.18298353  1
  O  O740  1  0.94759765  0.31310136  0.16945887  1
  H  H741  1  0.81883084  0.48029668  0.19783037  1
  O  O742  1  0.84381378  0.43186394  0.02019257  1
  C  C743  1  0.82080830  0.37850347  0.19146253  1
  Cl  Cl744  1  0.84270887  0.30271155  0.10352157  1
  Cu  Cu745  1  0.79225180  0.28276394  0.15758657  1
  O  O746  1  0.89523696  0.40383243  0.06345227  1
  Cu  Cu747  1  0.87016841  0.38572581  0.11397343  1
  C  C748  1  0.60044129  0.15339992  0.31491525  1
  C  C749  1  0.57360691  0.10977974  0.32057492  1
  C  C750  1  0.57275369  0.06838652  0.29367476  1
  C  C751  1  0.62250754  0.15894072  0.27864328  1
  H  H752  1  0.60057303  0.18077983  0.33966210  1
  C  C753  1  0.55111287  0.11159654  0.36124066  1
  Cl  Cl754  1  0.55716572  0.14889786  0.41340081  1
  C  C755  1  0.65451106  0.20110538  0.27208626  1
  O  O756  1  0.52509692  0.08311835  0.37524700  1
  H  H757  1  0.55139075  0.03487365  0.30153599  1
  O  O758  1  0.66129752  0.23074932  0.30140556  1
  C  C759  1  0.59646541  0.07543175  0.25766765  1
  H  H760  1  0.73553446  0.14427465  0.49911004  1
  C  C761  1  0.72864930  0.23180843  0.49777933  1
  H  H762  1  0.91905818  0.01405176  0.44809271  1
  O  O763  1  0.87904307  0.09715319  0.42355695  1
  H  H764  1  0.95985000  0.16270781  0.39438955  1
  C  C765  1  0.87509197  0.10772394  0.45822931  1
  O  O766  1  0.85954418  0.15173685  0.47086985  1
  Cu  Cu767  1  0.84591514  0.20812856  0.43897189  1
  O  O768  1  0.90032969  0.22165160  0.41018058  1
  C  C769  1  0.97575810  0.22167526  0.43671030  1
  C  C770  1  0.91628233  0.02700146  0.47966663  1
  O  O771  1  0.78559130  0.20572722  0.45503853  1
  C  C772  1  0.98425050  0.17662467  0.41638897  1
  C  C773  1  0.76572135  0.24270478  0.47074872  1
  C  C774  1  0.89341127  0.07073859  0.49031112  1
  C  C775  1  0.93278114  0.24442491  0.42847982  1
  O  O776  1  0.59193624  0.49207350  0.34482220  1
  H  H777  1  0.56943427  0.26428253  0.41873530  1
  O  O778  1  0.64025119  0.28632486  0.39677924  1
  O  O779  1  0.65299655  0.47456960  0.28967386  1
  C  C780  1  0.62607608  0.30157213  0.36518049  1
  O  O781  1  0.65072354  0.32482988  0.33696382  1
  C  C782  1  0.55259058  0.27993395  0.38962892  1
  C  C783  1  0.57742198  0.30118281  0.35803971  1
  C  C784  1  0.55658609  0.31936464  0.32313540  1
  H  H785  1  0.57544813  0.32958097  0.29601608  1
  H  H786  1  0.53183507  0.44402608  0.37860891  1
  Cu  Cu787  1  0.69841566  0.28791246  0.31355859  1
  Cu  Cu788  1  0.59391368  0.49241650  0.28966961  1
  C  C789  1  0.51289774  0.47710200  0.38976236  1
  C  C790  1  0.51007786  0.32034396  0.32084528  1
  O  O791  1  0.72583458  0.40190273  0.35067024  1
  O  O792  1  0.74418492  0.33185038  0.32126570  1
  C  C793  1  0.67247715  0.49099662  0.25693398  1
  O  O794  1  0.50816942  0.36339771  0.25619288  1
  C  C795  1  0.74326296  0.38004484  0.32333610  1
  C  C796  1  0.50618902  0.28513487  0.38717313  1
  H  H797  1  0.70486500  0.30756871  0.49938992  1
  H  H798  1  0.92941100  0.45632415  0.31523630  1
  O  O799  1  0.92754677  0.38139853  0.35762136  1
  H  H800  1  0.78531367  0.34013059  0.25937713  1
  C  C801  1  0.78463910  0.38082560  0.25742652  1
  H  H802  1  0.75408739  0.44156845  0.42800046  1
  C  C803  1  0.78597767  0.48806576  0.25640888  1
  O  O804  1  0.81455570  0.38282974  0.46684989  1
  C  C805  1  0.83911795  0.39466120  0.43635242  1
  C  C806  1  0.93645304  0.38595515  0.28385235  1
  Cl  Cl807  1  0.90494334  0.42740192  0.46610826  1
  H  H808  1  0.75254377  0.48080186  0.31717747  1
  C  C809  1  0.76677354  0.41001391  0.28916653  1
  O  O810  1  0.92998746  0.28975574  0.43877084  1
  C  C811  1  0.86115189  0.46765977  0.39078582  1
  O  O812  1  0.77860915  0.28828112  0.46798730  1
  C  C813  1  0.82432546  0.44444230  0.41087010  1
  C  C814  1  0.78001880  0.45973104  0.40935491  1
  Cu  Cu815  1  0.91973449  0.34745334  0.40731281  1
  O  O816  1  0.85914653  0.35661183  0.42028631  1
  O  O817  1  0.94935716  0.31383636  0.32473262  1
  H  H818  1  0.89547358  0.45242751  0.39764966  1
  C  C819  1  0.93901320  0.35649512  0.32417680  1
  C  C820  1  0.93124827  0.43625323  0.28555024  1
  C  C821  1  0.76874553  0.46029252  0.29020510  1
  H  H822  1  0.94547234  0.31551953  0.25010449  1
  O  O823  1  0.70844017  0.09664455  0.66157070  1
  C  C824  1  0.52506679  0.07950082  0.55992267  1
  C  C825  1  0.55995305  0.07188471  0.58819535  1
  H  H826  1  0.59088932  0.09291887  0.58525367  1
  H  H827  1  0.62261420  0.19408075  0.55950292  1
  C  C828  1  0.65517453  0.20314060  0.54708363  1
  H  H829  1  0.63959587  0.09107157  0.71435892  1
  C  C830  1  0.55037524  0.04019474  0.62016283  1
  O  O831  1  0.62119332  0.05955763  0.64658386  1
  C  C832  1  0.58617013  0.03441958  0.65234633  1
  C  C833  1  0.53424869  0.11061192  0.52196385  1
  Cu  Cu834  1  0.67795195  0.03395216  0.65449444  1
  O  O835  1  0.57058447  0.12845248  0.51696127  1
  C  C836  1  0.51087669  0.01415747  0.62560643  1
  C  C837  1  0.68604486  0.16674089  0.53640575  1
  C  C838  1  0.70684818  0.12116529  0.73160316  1
  C  C839  1  0.72921723  0.11542831  0.69133013  1
  C  C840  1  0.66271793  0.10546708  0.73782483  1
  Cl  Cl841  1  0.68356872  0.09163328  0.55587174  1
  C  C842  1  0.71960610  0.18009523  0.51132433  1
  Cu  Cu843  1  0.56301688  0.01640712  0.73225371  1
  O  O844  1  0.58011254  0.00346398  0.67939663  1
  O  O845  1  0.73235977  0.00112038  0.66365038  1
  O  O846  1  0.58087645  0.07942507  0.74898811  1
  Cu  Cu847  1  0.88628410  0.00547572  0.67263078  1
  O  O848  1  0.76828037  0.13224411  0.68641299  1
  O  O849  1  0.90632714  0.04168174  0.63070634  1
  C  C850  1  0.90214451  0.05841072  0.56188125  1
  C  C851  1  0.88891308  0.09077709  0.52919459  1
  H  H852  1  0.87365194  0.12806419  0.53497851  1
  C  C853  1  0.89056364  0.07008080  0.60303889  1
  O  O854  1  0.86478452  0.10676179  0.61258193  1
  Cu  Cu855  1  0.81922157  0.11613925  0.65296285  1
  O  O856  1  0.84493267  0.08025115  0.69369648  1
  C  C857  1  0.92233214  0.01251494  0.55353128  1
  C  C858  1  0.85661563  0.09783513  0.73065486  1
  H  H859  1  0.79300477  0.02054110  0.72968995  1
  O  O860  1  0.87830522  0.13438231  0.73426362  1
  O  O861  1  0.53429787  0.25711427  0.68076097  1
  C  C862  1  0.50844664  0.26342846  0.65403386  1
  C  C863  1  0.66051922  0.25362011  0.53141324  1
  O  O864  1  0.52155237  0.27136854  0.61675026  1
  O  O865  1  0.59102051  0.27701519  0.56368096  1
  C  C866  1  0.62396796  0.29119166  0.54028993  1
  Cu  Cu867  1  0.56102860  0.32176187  0.59441634  1
  O  O868  1  0.62758504  0.33360767  0.52937583  1
  O  O869  1  0.53089947  0.36765868  0.62531047  1
  O  O870  1  0.58055963  0.41376634  0.65550014  1
  C  C871  1  0.54329164  0.39609199  0.65562252  1
  C  C872  1  0.51482236  0.41042916  0.69078171  1
  C  C873  1  0.69760263  0.26793624  0.50976000  1
  C  C874  1  0.53406696  0.44097242  0.72053289  1
  H  H875  1  0.56774811  0.45512820  0.71805112  1
  H  H876  1  0.92111549  0.29548167  0.62885508  1
  C  C877  1  0.95268778  0.49228966  0.60993806  1
  C  C878  1  0.96620238  0.41142835  0.64621505  1
  C  C879  1  0.95706218  0.36092246  0.65554948  1
  C  C880  1  0.91160779  0.41235335  0.59015495  1
  C  C881  1  0.87563855  0.32974850  0.56919939  1
  O  O882  1  0.96254155  0.30033340  0.70991236  1
  C  C883  1  0.97587959  0.33730579  0.69406835  1
  C  C884  1  0.94352476  0.43605530  0.61471029  1
  H  H885  1  0.98805400  0.43250347  0.66590989  1
  O  O886  1  0.85154667  0.35307788  0.54068113  1
  C  C887  1  0.92973739  0.33669377  0.62670265  1
  H  H888  1  0.89269688  0.43340887  0.56721191  1
  C  C889  1  0.90648944  0.36094771  0.59475637  1
  O  O890  1  0.87086000  0.28675543  0.57605266  1
  Cu  Cu891  1  0.81463131  0.32498976  0.50195546  1
  H  H892  1  0.65872307  0.13332484  0.83887708  1
  C  C893  1  0.67342715  0.12716016  0.80930903  1
  C  C894  1  0.64582341  0.10984268  0.77777493  1
  O  O895  1  0.57924561  0.09915586  0.81564283  1
  C  C896  1  0.71637796  0.14562068  0.80183618  1
  C  C897  1  0.59863854  0.09393396  0.78432168  1
  O  O898  1  0.72285756  0.17927719  0.86671573  1
  C  C899  1  0.73448508  0.14062073  0.76323992  1
  C  C900  1  0.74152893  0.17342965  0.83548597  1
  H  H901  1  0.76318450  0.03159212  0.86085744  1
  O  O902  1  0.78111356  0.19177740  0.82734605  1
  C  C903  1  0.77940088  0.02147958  0.79656094  1
  C  C904  1  0.78528988  0.04197793  0.83543123  1
  O  O905  1  0.81355545  0.10072134  0.90735359  1
  C  C906  1  0.83992500  0.09797015  0.80282384  1
  C  C907  1  0.82795180  0.11121260  0.87408624  1
  O  O908  1  0.85109928  0.15257539  0.86787225  1
  H  H909  1  0.86198501  0.12971617  0.80232577  1
  C  C910  1  0.81650745  0.08053536  0.83740772  1
  C  C911  1  0.83258783  0.07495183  0.76483330  1
  C  C912  1  0.80068862  0.03596514  0.76074527  1
  Cu  Cu913  1  0.82386881  0.21566698  0.86346148  1
  H  H914  1  0.76786213  0.15681579  0.75410470  1
  O  O915  1  0.86465583  0.24403410  0.90005585  1
  H  H916  1  0.66983262  0.41916448  0.95831832  1
  C  C917  1  0.69147034  0.45144574  0.95416103  1
  Cu  Cu918  1  0.53620709  0.47615581  0.96067414  1
  O  O919  1  0.59739965  0.47200918  0.96718236  1
  C  C920  1  0.52726302  0.47930295  0.78946143  1
  O  O921  1  0.56988983  0.49151502  0.78813771  1
  O  O922  1  0.57603556  0.35543371  0.98064676  1
  C  C923  1  0.50940165  0.45256669  0.75585857  1
  O  O924  1  0.52602798  0.41516002  0.98791144  1
  C  C925  1  0.73723616  0.44790698  0.94494064  1
  O  O926  1  0.50432625  0.49394324  0.81981094  1
  O  O927  1  0.73785438  0.35964736  0.93408976  1
  C  C928  1  0.67563519  0.49889686  0.96026692  1
  H  H929  1  0.89072155  0.25128108  0.97433628  1
  C  C930  1  0.95998909  0.25550294  0.99855701  1
  C  C931  1  0.92557691  0.25640731  0.96908298  1
  H  H932  1  0.96980720  0.41172083  0.90368908  1
  C  C933  1  0.90626191  0.25848729  0.89450406  1
  C  C934  1  0.75928953  0.39818526  0.93476862  1
  O  O935  1  0.80306218  0.39955734  0.92608616  1
  C  C936  1  0.96788922  0.43999507  0.87884602  1
  C  C937  1  0.90085713  0.48065825  0.91233258  1
  Cu  Cu938  1  0.85188875  0.41083995  0.96269158  1
  O  O939  1  0.89532482  0.44996335  0.94076798  1
  C  C940  1  0.93410564  0.47667846  0.87965805  1
  C  C941  1  0.99350540  0.47479380  0.81218717  1
  C  C942  1  0.99621409  0.44250568  0.84522069  1
  H  H943  1  0.99009205  0.25972100  0.88318821  1
  C  C944  1  0.93949302  0.25938846  0.92900306  1
  O  O945  1  0.92073848  0.26383587  0.86057269  1
  C  C946  1  0.98482282  0.26092573  0.91649986  1
  C  C947  1  0.76528126  0.48975709  0.94135012  1
  H  H948  1  0.79888104  0.48615455  0.92854157  1
  H  H949  1  0.64320872  0.67028732  0.13136677  1
  C  C950  1  0.70453872  0.71331176  0.14120818  1
  C  C951  1  0.65949350  0.70793263  0.12965037  1
  O  O952  1  0.57478154  0.69317619  0.10428859  1
  O  O953  1  0.70893760  0.62921875  0.15083714  1
  C  C954  1  0.72958821  0.67039994  0.15553142  1
  Cu  Cu955  1  0.71011554  0.59117191  0.09977228  1
  O  O956  1  0.60614129  0.61256270  0.06954752  1
  C  C957  1  0.63854623  0.63184958  0.05257198  1
  O  O958  1  0.67643396  0.63634024  0.07029861  1
  Cu  Cu959  1  0.54923395  0.63820988  0.07881376  1
  H  H960  1  0.71735902  0.52986550  0.19209701  1
  O  O961  1  0.55912980  0.64297640  0.20999304  1
  H  H962  1  0.69654108  0.69098395  0.02240511  1
  C  C963  1  0.59274641  0.65818076  0.22596989  1
  C  C964  1  0.63376731  0.65336349  0.01057077  1
  C  C965  1  0.60723384  0.71598734  0.22023977  1
  C  C966  1  0.58977430  0.73647313  0.09482421  1
  C  C967  1  0.63531695  0.74418162  0.10829312  1
  H  H968  1  0.56010839  0.73374242  0.17303110  1
  C  C969  1  0.64356294  0.72906288  0.24430129  1
  O  O970  1  0.74534496  0.54118708  0.12580748  1
  C  C971  1  0.58826499  0.74645572  0.19206471  1
  C  C972  1  0.67043757  0.68333908  0.00073612  1
  C  C973  1  0.92758921  0.51648084  0.24633366  1
  O  O974  1  0.76823824  0.67124774  0.17301843  1
  O  O975  1  0.93273393  0.53559487  0.21064704  1
  O  O976  1  0.96409260  0.61388999  0.12812197  1
  C  C977  1  0.93098507  0.55170560  0.09019849  1
  Cu  Cu978  1  0.79476941  0.62156926  0.20345808  1
  C  C979  1  0.96202631  0.56578222  0.12119956  1
  H  H980  1  0.91569558  0.62943442  0.06875528  1
  C  C981  1  0.90651235  0.59051861  0.06767355  1
  C  C982  1  0.86751499  0.67354730  0.23298469  1
  C  C983  1  0.93120644  0.71080173  0.19639833  1
  H  H984  1  0.95016834  0.67700307  0.20270957  1
  C  C985  1  0.88778501  0.71605347  0.21026456  1
  O  O986  1  0.81201805  0.56571865  0.23263732  1
  C  C987  1  0.87451439  0.57762668  0.03900781  1
  O  O988  1  0.82746970  0.66477601  0.23543761  1
  O  O989  1  0.98390957  0.53444948  0.14163051  1
  C  C990  1  0.86032784  0.52826232  0.03718084  1
  Cl  Cl991  1  0.86420131  0.69039725  0.04941683  1
  Cu  Cu992  1  0.99428410  0.54873907  0.19995463  1
  O  O993  1  0.97975258  0.68182656  0.03989061  1
  O  O994  1  0.89676053  0.64477950  0.24992784  1
  C  C995  1  0.92372765  0.50184083  0.08088256  1
  O  O996  1  0.80540337  0.62558542  0.01669402  1
  C  C997  1  0.84722488  0.62103289  0.01061206  1
  H  H998  1  0.83275730  0.51785271  0.01675022  1
  C  C999  1  0.99735552  0.64031993  0.03828029  1
  C  C1000  1  0.99945401  0.60949830  0.00057127  1
  C  C1001  1  0.72543981  0.75886394  0.13700455  1
  C  C1002  1  0.51188436  0.98414818  0.15837958  1
  O  O1003  1  0.56800168  0.76735991  0.07357861  1
  C  C1004  1  0.65679988  0.79086078  0.10282494  1
  C  C1005  1  0.69954241  0.79639624  0.11725173  1
  C  C1006  1  0.53099277  0.86784648  0.01351895  1
  O  O1007  1  0.55235928  0.82081071  0.14086440  1
  H  H1008  1  0.64184031  0.82473147  0.08800511  1
  O  O1009  1  0.56533297  0.85701085  0.03633855  1
  C  C1010  1  0.58523956  0.83255277  0.16282162  1
  C  C1011  1  0.60645461  0.79581251  0.18980304  1
  O  O1012  1  0.60134933  0.87747336  0.16212496  1
  Cu  Cu1013  1  0.55856701  0.83773233  0.08850487  1
  O  O1014  1  0.54767228  0.96133857  0.15104310  1
  C  C1015  1  0.64448120  0.81050998  0.21084389  1
  Cu  Cu1016  1  0.58615500  0.93304510  0.19643050  1
  O  O1017  1  0.70749290  0.88077502  0.09365260  1
  C  C1018  1  0.72354130  0.84398545  0.10616259  1
  H  H1019  1  0.65702623  0.84957264  0.20734959  1
  O  O1020  1  0.53901279  0.90658177  0.22904487  1
  C  C1021  1  0.66445046  0.77493521  0.23593172  1
  H  H1022  1  0.50022046  0.88182771  0.15363106  1
  O  O1023  1  0.58424104  0.99258113  0.23009045  1
  C  C1024  1  0.95465955  0.75113100  0.17778077  1
  C  C1025  1  0.86991249  0.84868942  0.16995201  1
  C  C1026  1  0.86554483  0.76063598  0.20217623  1
  O  O1027  1  0.79942178  0.95963483  0.16863145  1
  O  O1028  1  0.76857652  0.84592979  0.11928875  1
  O  O1029  1  0.88859051  0.88491558  0.15631738  1
  C  C1030  1  0.93415069  0.79775074  0.16987383  1
  H  H1031  1  0.83196760  0.76960794  0.21158336  1
  Cu  Cu1032  1  0.78518000  0.89679794  0.15091216  1
  H  H1033  1  0.95049034  0.82872798  0.15380723  1
  H  H1034  1  0.76041051  0.76637728  0.14513529  1
  C  C1035  1  0.88971539  0.79847892  0.18227581  1
  H  H1036  1  0.87299480  0.99234673  0.15543588  1
  O  O1037  1  0.82684904  0.85226137  0.17892168  1
  Cu  Cu1038  1  0.64866586  0.56263922  0.41598313  1
  O  O1039  1  0.60150330  0.56369169  0.37455514  1
  O  O1040  1  0.72447702  0.56609976  0.35892971  1
  C  C1041  1  0.53211793  0.52347740  0.38534108  1
  C  C1042  1  0.57745186  0.52716662  0.36771820  1
  O  O1043  1  0.63836135  0.60717623  0.45959888  1
  C  C1044  1  0.67121945  0.62952067  0.48016631  1
  C  C1045  1  0.72603621  0.52849676  0.38260875  1
  Cu  Cu1046  1  0.70924249  0.55456500  0.30623944  1
  H  H1047  1  0.52245965  0.60503766  0.39168748  1
  O  O1048  1  0.70650436  0.63359438  0.46278580  1
  O  O1049  1  0.69507436  0.51558820  0.40578692  1
  H  H1050  1  0.65691922  0.70565479  0.26881856  1
  O  O1051  1  0.53632122  0.52453134  0.28074515  1
  H  H1052  1  0.50405477  0.61189112  0.27181835  1
  O  O1053  1  0.61251823  0.63262374  0.25200353  1
  O  O1054  1  0.68498857  0.53728871  0.25908912  1
  C  C1055  1  0.50933893  0.56756274  0.39780934  1
  C  C1056  1  0.77042304  0.50378958  0.38630856  1
  C  C1057  1  0.80597894  0.52924312  0.36837172  1
  H  H1058  1  0.79523261  0.56566728  0.35383430  1
  O  O1059  1  0.92564505  0.52869208  0.36311610  1
  C  C1060  1  0.88653578  0.54449890  0.35767793  1
  O  O1061  1  0.87939307  0.58795451  0.34034811  1
  O  O1062  1  0.96120598  0.60625026  0.41011846  1
  C  C1063  1  0.85014271  0.51328845  0.37186757  1
  H  H1064  1  0.88795897  0.64921202  0.39445720  1
  O  O1065  1  0.80681333  0.68441711  0.36056761  1
  O  O1066  1  0.76845755  0.56803324  0.28600051  1
  Cu  Cu1067  1  0.87804449  0.59638181  0.28496128  1
  C  C1068  1  0.89942037  0.68815131  0.39615105  1
  C  C1069  1  0.94248078  0.69568729  0.41046075  1
  Cu  Cu1070  1  0.98241432  0.56373452  0.37175772  1
  C  C1071  1  0.97270365  0.65269312  0.42078351  1
  O  O1072  1  0.92282329  0.54601798  0.27615755  1
  C  C1073  1  0.82502829  0.72529298  0.36538183  1
  C  C1074  1  0.87129582  0.72786156  0.38431219  1
  C  C1075  1  0.79017095  0.54276729  0.25981704  1
  C  C1076  1  0.95504573  0.74492524  0.42033725  1
  C  C1077  1  0.50486774  0.87354691  0.45265293  1
  O  O1078  1  0.58160580  0.76528826  0.46408579  1
  O  O1079  1  0.53235048  0.76138482  0.39111194  1
  Cl  Cl1080  1  0.65593141  0.78838393  0.38105972  1
  H  H1081  1  0.55752434  0.81330985  0.31851030  1
  O  O1082  1  0.58487967  0.86662412  0.26784431  1
  C  C1083  1  0.54671310  0.87496390  0.25882286  1
  Cu  Cu1084  1  0.57169402  0.80590426  0.42206887  1
  O  O1085  1  0.54744392  0.86355019  0.44655192  1
  C  C1086  1  0.70547516  0.78750123  0.25835584  1
  C  C1087  1  0.68888110  0.85434356  0.36478700  1
  O  O1088  1  0.67191751  0.89224084  0.35500819  1
  O  O1089  1  0.72688939  0.82458124  0.25043419  1
  O  O1090  1  0.72928390  0.83733829  0.35926228  1
  C  C1091  1  0.50805314  0.85468028  0.28270245  1
  O  O1092  1  0.71959914  0.75575197  0.28647098  1
  C  C1093  1  0.52200156  0.82235755  0.31455911  1
  Cu  Cu1094  1  0.74501472  0.77255941  0.33950132  1
  H  H1095  1  0.51106802  0.77663132  0.47420169  1
  C  C1096  1  0.93951391  0.83719841  0.42203373  1
  O  O1097  1  0.80206720  0.76547866  0.35764409  1
  O  O1098  1  0.97636070  0.83885821  0.44294434  1
  H  H1099  1  0.98963609  0.75165383  0.43278710  1
  H  H1100  1  0.86418938  0.81133069  0.38341859  1
  C  C1101  1  0.88517299  0.77749817  0.39002430  1
  O  O1102  1  0.96517055  0.93096562  0.47286785  1
  C  C1103  1  0.92638486  0.78375928  0.41043813  1
  O  O1104  1  0.92350256  0.87250561  0.40566106  1
  C  C1105  1  0.56955862  0.65739401  0.60453994  1
  O  O1106  1  0.56783850  0.67495235  0.64172349  1
  O  O1107  1  0.53775257  0.64909870  0.58351219  1
  C  C1108  1  0.61382684  0.65724148  0.58315895  1
  C  C1109  1  0.65214400  0.66340568  0.60819935  1
  H  H1110  1  0.65130715  0.66945887  0.64197327  1
  Cu  Cu1111  1  0.59378460  0.73207719  0.66274051  1
  C  C1112  1  0.61642499  0.64881215  0.54088899  1
  C  C1113  1  0.69160471  0.66393069  0.58718711  1
  C  C1114  1  0.69807081  0.65143739  0.54657523  1
  C  C1115  1  0.65938208  0.64454797  0.52405573  1
  H  H1116  1  0.58757008  0.64600994  0.52169250  1
  O  O1117  1  0.72428453  0.67679218  0.65241126  1
  H  H1118  1  0.73281557  0.64473068  0.53352413  1
  C  C1119  1  0.73279302  0.67423066  0.61360543  1
  Cu  Cu1120  1  0.74682765  0.72629940  0.68484394  1
  O  O1121  1  0.61305005  0.61041286  0.74811238  1
  O  O1122  1  0.77009598  0.67527604  0.60154802  1
  Cl  Cl1123  1  0.86575915  0.74943519  0.64129891  1
  O  O1124  1  0.93177633  0.51595644  0.58604820  1
  O  O1125  1  0.98682012  0.50987740  0.62926227  1
  H  H1126  1  0.99942982  0.66466953  0.70130973  1
  O  O1127  1  0.63713348  0.75631812  0.69490616  1
  H  H1128  1  0.50432028  0.98754629  0.65173107  1
  Cu  Cu1129  1  0.50404896  0.87623146  0.68103115  1
  O  O1130  1  0.69922258  0.76704143  0.65879797  1
  C  C1131  1  0.51449376  0.78034341  0.63953655  1
  O  O1132  1  0.55146101  0.78507495  0.65769221  1
  C  C1133  1  0.55344298  0.77628341  0.53074390  1
  C  C1134  1  0.55678860  0.78030824  0.57233205  1
  H  H1135  1  0.58723018  0.78633117  0.58916230  1
  O  O1136  1  0.62984520  0.78161373  0.51337094  1
  C  C1137  1  0.66826176  0.78217012  0.68112254  1
  C  C1138  1  0.53373139  0.89258996  0.59890916  1
  C  C1139  1  0.67292975  0.83743761  0.69180429  1
  C  C1140  1  0.70137164  0.86888523  0.66974259  1
  C  C1141  1  0.69857134  0.91897639  0.68107959  1
  O  O1142  1  0.57278473  0.88803223  0.59716942  1
  C  C1143  1  0.66770333  0.93851419  0.70803856  1
  C  C1144  1  0.64190163  0.85267865  0.72030909  1
  H  H1145  1  0.66681108  0.97853958  0.71448194  1
  C  C1146  1  0.63991599  0.90440816  0.72825908  1
  H  H1147  1  0.61984654  0.82648216  0.73638671  1
  H  H1148  1  0.55424401  0.88096123  0.52257782  1
  H  H1149  1  0.72573938  0.85569874  0.64663623  1
  C  C1150  1  0.51732373  0.88087590  0.52727229  1
  C  C1151  1  0.73032508  0.95280810  0.65646406  1
  Cl  Cl1152  1  0.50621696  0.95366903  0.72350964  1
  C  C1153  1  0.51271077  0.77340569  0.50890755  1
  O  O1154  1  0.51503705  0.90660426  0.63471545  1
  C  C1155  1  0.51621188  0.77765661  0.59374539  1
  C  C1156  1  0.59212351  0.77664564  0.50277413  1
  O  O1157  1  0.75412746  0.93500840  0.63070442  1
  C  C1158  1  0.95664411  0.85192528  0.70893186  1
  C  C1159  1  0.91192027  0.90322373  0.66141843  1
  H  H1160  1  0.95886858  0.93181138  0.70832112  1
  H  H1161  1  0.94949877  0.77002416  0.70355798  1
  O  O1162  1  0.97091684  0.93070027  0.54099693  1
  H  H1163  1  0.85836003  0.85865401  0.63028491  1
  C  C1164  1  0.78655149  0.81322631  0.71873656  1
  O  O1165  1  0.77009150  0.76967961  0.72583884  1
  H  H1166  1  0.82512489  0.90272421  0.70929548  1
  C  C1167  1  0.93624932  0.80779822  0.69057967  1
  C  C1168  1  0.94239453  0.89742750  0.69420437  1
  H  H1169  1  0.93464912  0.98820234  0.57764941  1
  O  O1170  1  0.86068097  0.97413664  0.71434834  1
  C  C1171  1  0.90127815  0.81133853  0.66367415  1
  C  C1172  1  0.88965347  0.85526203  0.64982694  1
  C  C1173  1  0.93162222  0.99747607  0.51299840  1
  O  O1174  1  0.90335074  0.94429378  0.64471133  1
  C  C1175  1  0.95876866  0.95114466  0.51072848  1
  O  O1176  1  0.79105555  0.83120905  0.68492837  1
  C  C1177  1  0.82678828  0.88879327  0.74088760  1
  C  C1178  1  0.99572082  0.85263834  0.73937724  1
  C  C1179  1  0.64600063  0.68479581  0.77407017  1
  C  C1180  1  0.60265812  0.70346168  0.76848708  1
  H  H1181  1  0.68628316  0.58100650  0.96673852  1
  C  C1182  1  0.70020715  0.54364440  0.95722261  1
  C  C1183  1  0.59948236  0.67088644  0.94453437  1
  Cl  Cl1184  1  0.54234278  0.59993777  0.81104311  1
  H  H1185  1  0.70553909  0.69705930  0.80651056  1
  C  C1186  1  0.67642820  0.71356879  0.79563093  1
  Cu  Cu1187  1  0.58899809  0.55219145  0.77076852  1
  C  C1188  1  0.67148298  0.70550907  0.96173792  1
  C  C1189  1  0.63540791  0.70135108  0.93438842  1
  C  C1190  1  0.55709556  0.67400361  0.91899464  1
  O  O1191  1  0.55459485  0.68051369  0.88280252  1
  H  H1192  1  0.63702229  0.72241107  0.90578541  1
  C  C1193  1  0.71243866  0.73290582  0.95055187  1
  Cl  Cl1194  1  0.52875756  0.59527652  0.93024409  1
  C  C1195  1  0.65133509  0.63131072  0.75914457  1
  O  O1196  1  0.68584678  0.61002865  0.75507299  1
  O  O1197  1  0.74702180  0.72933847  0.97188389  1
  O  O1198  1  0.51393023  0.69880072  0.94169094  1
  C  C1199  1  0.74504475  0.53631257  0.94779150  1
  C  C1200  1  0.59711085  0.64698794  0.98358016  1
  O  O1201  1  0.61731195  0.54584354  0.98714017  1
  H  H1202  1  0.57459102  0.68018830  0.75582114  1
  Cu  Cu1203  1  0.50165629  0.64991150  0.85093847  1
  C  C1204  1  0.62710588  0.50561854  0.97356194  1
  H  H1205  1  0.56804743  0.62327705  0.99209576  1
  O  O1206  1  0.51716733  0.74732961  0.75022587  1
  C  C1207  1  0.95834483  0.51079742  0.81487576  1
  O  O1208  1  0.75683189  0.62518228  0.95105638  1
  C  C1209  1  0.99953837  0.56430284  0.92529402  1
  C  C1210  1  0.92812163  0.50973222  0.84614684  1
  C  C1211  1  0.94453564  0.62903272  0.90055757  1
  C  C1212  1  0.77314242  0.58335944  0.94313406  1
  O  O1213  1  0.92641757  0.66783950  0.91118356  1
  O  O1214  1  0.80889590  0.57964212  0.92453041  1
  Cu  Cu1215  1  0.86593127  0.57364769  0.94328983  1
  O  O1216  1  0.86055712  0.63115346  0.97400647  1
  Cu  Cu1217  1  0.94552864  0.64185185  0.81418738  1
  H  H1218  1  0.89939331  0.53637818  0.84574168  1
  O  O1219  1  0.87273888  0.51617018  0.90759482  1
  O  O1220  1  0.93948240  0.61055990  0.86370607  1
  H  H1221  1  0.95786945  0.67143667  0.97237939  1
  C  C1222  1  0.97511532  0.63353701  0.97006453  1
  C  C1223  1  0.97407037  0.60784072  0.93240822  1
  C  C1224  1  0.95553148  0.54818258  0.78028940  1
  O  O1225  1  0.92736820  0.58499618  0.78250603  1
  Cu  Cu1226  1  0.77466729  0.67208644  0.99323102  1
  O  O1227  1  0.96645904  0.67599257  0.77053658  1
  H  H1228  1  0.99745543  0.54876018  0.89532401  1
  O  O1229  1  0.98015094  0.54285562  0.75113891  1
  C  C1230  1  0.59066930  0.75218149  0.77968959  1
  C  C1231  1  0.50866248  0.90426401  0.94541398  1
  O  O1232  1  0.71303777  0.76043745  0.91952676  1
  C  C1233  1  0.66484936  0.76260496  0.80649110  1
  C  C1234  1  0.54534153  0.77141448  0.77179848  1
  O  O1235  1  0.53933244  0.81513782  0.78548795  1
  C  C1236  1  0.52246176  0.91941122  0.90673685  1
  C  C1237  1  0.62083608  0.78144672  0.80092085  1
  O  O1238  1  0.73231064  0.77660327  0.84033367  1
  H  H1239  1  0.57473322  0.93305982  0.85978802  1
  H  H1240  1  0.61151866  0.81970537  0.81123895  1
  O  O1241  1  0.67963829  0.83694974  0.84047078  1
  C  C1242  1  0.69422142  0.79418192  0.83050745  1
  Cu  Cu1243  1  0.70043274  0.90318194  0.83321242  1
  O  O1244  1  0.67119019  0.88511959  0.93039303  1
  C  C1245  1  0.64615149  0.90738186  0.90933137  1
  C  C1246  1  0.59640522  0.90312596  0.91994749  1
  O  O1247  1  0.65918562  0.92522697  0.87391288  1
  C  C1248  1  0.56485132  0.91954830  0.89142064  1
  C  C1249  1  0.58674495  0.88610235  0.95921096  1
  O  O1250  1  0.72804291  0.96588604  0.82820223  1
  O  O1251  1  0.58458515  0.89681282  0.77866976  1
  C  C1252  1  0.54251123  0.88775644  0.97237737  1
  O  O1253  1  0.74297737  0.95744709  0.76084328  1
  H  H1254  1  0.61278161  0.87387121  0.98178430  1
  O  O1255  1  0.60455334  0.97334924  0.76454502  1
  C  C1256  1  0.60829129  0.92727963  0.75913893  1
  C  C1257  1  0.74848167  0.97592380  0.79316821  1
  Cu  Cu1258  1  0.53303132  0.87021800  0.75525136  1
  O  O1259  1  0.86313720  0.85492989  0.88565892  1
  O  O1260  1  0.82068845  0.79143838  0.86735484  1
  H  H1261  1  0.88210803  0.91738707  0.83140050  1
  C  C1262  1  0.86123841  0.89693500  0.80817030  1
  Cu  Cu1263  1  0.76329253  0.77866921  0.88953136  1
  C  C1264  1  0.83840598  0.85273291  0.81670601  1
  C  C1265  1  0.84051837  0.83341267  0.86148521  1
  O  O1266  1  0.90543484  0.98273037  0.76734720  1
  H  H1267  1  0.79582632  0.78773229  0.80154647  1
  C  C1268  1  0.81163385  0.82284713  0.79176338  1
  C  C1269  1  0.85535127  0.91332654  0.76769162  1
  C  C1270  1  0.87730576  0.96062251  0.75097553  1
  C  C1271  1  0.80987902  0.84146140  0.75196047  1
