# generated using pymatgen
data_Zn16H60(C37O20)3
_symmetry_space_group_name_H-M   'P 1'
_cell_length_a   17.65716797
_cell_length_b   21.81256081
_cell_length_c   37.03046231
_cell_angle_alpha   90.00000000
_cell_angle_beta   90.00000000
_cell_angle_gamma   90.00000000
_symmetry_Int_Tables_number   1
_chemical_formula_structural   Zn16H60(C37O20)3
_chemical_formula_sum   'Zn64 H240 C444 O240'
_cell_volume   14262.21035497
_cell_formula_units_Z   4
loop_
 _symmetry_equiv_pos_site_id
 _symmetry_equiv_pos_as_xyz
  1  'x, y, z'
loop_
 _atom_site_type_symbol
 _atom_site_label
 _atom_site_symmetry_multiplicity
 _atom_site_fract_x
 _atom_site_fract_y
 _atom_site_fract_z
 _atom_site_occupancy
  O  O0  1  0.38016287  0.38108774  0.06364122  1
  C  C1  1  0.25060530  0.15883117  0.03890879  1
  C  C2  1  0.40435967  0.33577863  0.17905315  1
  O  O3  1  0.40110198  0.06741678  0.10690348  1
  C  C4  1  0.12809312  0.32476419  0.09805283  1
  O  O5  1  0.11577670  0.29986300  0.00926955  1
  O  O6  1  0.02873747  0.24857965  0.20555807  1
  C  C7  1  0.18955724  0.12840432  0.10415532  1
  C  C8  1  0.05853070  0.46011858  0.22511840  1
  O  O9  1  0.26022069  0.15145980  0.00677942  1
  O  O10  1  0.39813687  0.28072830  0.06704590  1
  C  C11  1  0.09802656  0.43615010  0.09676714  1
  C  C12  1  0.33624668  0.32047557  0.15623797  1
  C  C13  1  0.08178363  0.04618969  0.05977147  1
  C  C14  1  0.44506070  0.38601509  0.23511031  1
  O  O15  1  0.32731567  0.16458890  0.06005094  1
  O  O16  1  0.32491369  0.26526335  0.15017323  1
  C  C17  1  0.12979475  0.09203622  0.16159654  1
  Zn  Zn18  1  0.00037647  0.38102858  0.22634196  1
  C  C19  1  0.41935144  0.33413712  0.07194751  1
  Zn  Zn20  1  0.11028711  0.02551951  0.23848542  1
  O  O21  1  0.10294639  0.27069222  0.10399618  1
  O  O22  1  0.19291099  0.33353096  0.08641427  1
  O  O23  1  0.42850705  0.14989571  0.13646062  1
  H  H24  1  0.32444194  0.40509365  0.21196746  1
  Zn  Zn25  1  0.06313989  0.21938201  0.15202856  1
  H  H26  1  0.03556356  0.40471877  0.01371064  1
  Zn  Zn27  1  0.36007206  0.20717309  0.10445007  1
  C  C28  1  0.07438980  0.37516481  0.10588487  1
  C  C29  1  0.14528877  0.08025273  0.12276625  1
  Zn  Zn30  1  0.28095075  0.40529884  0.09578358  1
  C  C31  1  0.11825141  0.10492924  0.04645101  1
  C  C32  1  0.09182658  0.04254614  0.10301500  1
  Zn  Zn33  1  0.41153548  0.09638949  0.05211265  1
  Zn  Zn34  1  0.18558292  0.23898454  0.04248276  1
  C  C35  1  0.49351630  0.07501714  0.19453150  1
  H  H36  1  0.01123806  0.12931235  0.21885603  1
  O  O37  1  0.12828186  0.14815942  0.17332503  1
  C  C38  1  0.18181373  0.13894266  0.06395806  1
  H  H39  1  0.01847209  0.49231993  0.03973934  1
  O  O40  1  0.28957268  0.36012194  0.14848308  1
  H  H41  1  0.15356244  0.44091196  0.08310595  1
  Zn  Zn42  1  0.19150682  0.03543115  0.07631591  1
  C  C43  1  0.38429622  0.39522657  0.20290190  1
  H  H44  1  0.09938367  0.12403771  0.02022105  1
  H  H45  1  0.22002993  0.16344041  0.12063592  1
  H  H46  1  0.49658059  0.12450645  0.19751693  1
  C  C47  1  0.43260199  0.09261289  0.13378444  1
  O  O48  1  0.13607347  0.04735078  0.18104821  1
  Zn  Zn49  1  0.40405354  0.29309711  0.23599227  1
  C  C50  1  0.47029350  0.05170349  0.16161180  1
  H  H51  1  0.05023716  0.01483845  0.11930491  1
  C  C52  1  0.05226539  0.48673347  0.10084474  1
  O  O53  1  0.38722193  0.00756977  0.02677220  1
  O  O54  1  0.05373333  0.00243944  0.04071512  1
  C  C55  1  0.49504686  0.34509252  0.08882013  1
  H  H56  1  0.48501690  0.44082852  0.08525958  1
  H  H57  1  0.48340916  0.14800485  0.24543894  1
  H  H58  1  0.48666263  0.26465244  0.15780303  1
  C  C59  1  0.47273897  0.29199548  0.18246971  1
  Zn  Zn60  1  0.47386759  0.41466631  0.17172628  1
  H  H61  1  0.02100499  0.06732354  0.01005933  1
  C  C62  1  0.00711735  0.36178163  0.12231765  1
  O  O63  1  0.26700497  0.49789431  0.10058092  1
  C  C64  1  0.16941462  0.34629171  0.40150777  1
  H  H65  1  0.38963792  0.36850740  0.46167324  1
  H  H66  1  0.22747227  0.45825593  0.42998218  1
  H  H67  1  0.46160932  0.18689804  0.48382374  1
  O  O68  1  0.35298915  0.29390052  0.30793204  1
  H  H69  1  0.08455578  0.30442482  0.44936815  1
  O  O70  1  0.32174819  0.09013710  0.37808889  1
  C  C71  1  0.45410989  0.05228120  0.38294258  1
  Zn  Zn72  1  0.28102991  0.16333696  0.40430456  1
  O  O73  1  0.39235379  0.44887903  0.28528031  1
  O  O74  1  0.21584752  0.42232507  0.31028123  1
  H  H75  1  0.25041974  0.31405220  0.35593649  1
  C  C76  1  0.21487013  0.27477851  0.34518911  1
  C  C77  1  0.44636333  0.47094358  0.40273076  1
  C  C78  1  0.42415417  0.27356755  0.46927725  1
  O  O79  1  0.11828811  0.29366723  0.38847150  1
  O  O80  1  0.38578312  0.07083506  0.32808659  1
  O  O81  1  0.33977782  0.42282870  0.36873964  1
  O  O82  1  0.33013741  0.26672518  0.42196630  1
  O  O83  1  0.44129607  0.37059301  0.37890906  1
  O  O84  1  0.10932269  0.47035383  0.40075157  1
  C  C85  1  0.13573961  0.32797835  0.46223145  1
  H  H86  1  0.27788740  0.38260561  0.43223918  1
  H  H87  1  0.09652735  0.39526500  0.26856020  1
  H  H88  1  0.16836836  0.38145263  0.37847183  1
  C  C89  1  0.15479008  0.38022639  0.43667474  1
  H  H90  1  0.07013064  0.09475085  0.40509113  1
  C  C91  1  0.07610511  0.13055679  0.29680563  1
  H  H92  1  0.04276580  0.20820694  0.35761219  1
  C  C93  1  0.45292163  0.06187594  0.42011625  1
  O  O94  1  0.01034465  0.11758846  0.30739033  1
  O  O95  1  0.37227178  0.18269307  0.44279258  1
  C  C96  1  0.23774781  0.23606862  0.31616909  1
  C  C97  1  0.16281910  0.48473750  0.26627176  1
  H  H98  1  0.17982407  0.29282463  0.46357957  1
  C  C99  1  0.11997978  0.18190836  0.31563376  1
  C  C100  1  0.37361267  0.24119920  0.44271735  1
  H  H101  1  0.08767684  0.45651042  0.45316320  1
  H  H102  1  0.22228226  0.31987805  0.40438821  1
  Zn  Zn103  1  0.31834179  0.38097490  0.31797638  1
  C  C104  1  0.22699752  0.41109768  0.44248109  1
  C  C105  1  0.19218134  0.19210237  0.30099063  1
  C  C106  1  0.09880316  0.21519477  0.34644387  1
  H  H107  1  0.21470902  0.16124762  0.27891581  1
  O  O108  1  0.11200070  0.09993047  0.27457725  1
  C  C109  1  0.14581430  0.26185461  0.36008033  1
  C  C110  1  0.31640094  0.24350955  0.30164534  1
  O  O111  1  0.18008444  0.15367338  0.43072698  1
  C  C112  1  0.40697503  0.41829916  0.38222428  1
  H  H113  1  0.40238707  0.08691484  0.43146933  1
  C  C114  1  0.17976342  0.11395078  0.45633061  1
  C  C115  1  0.44232665  0.43639884  0.26229663  1
  H  H116  1  0.43279668  0.11648895  0.47994274  1
  C  C117  1  0.46947276  0.23369584  0.48994716  1
  C  C118  1  0.11385299  0.06559495  0.45841469  1
  C  C119  1  0.09178069  0.42312788  0.43007464  1
  C  C120  1  0.42860171  0.33682429  0.47528602  1
  C  C121  1  0.38427600  0.07587675  0.36122537  1
  C  C122  1  0.05393584  0.23613709  0.49458643  1
  H  H123  1  0.03448985  0.39927028  0.42851664  1
  O  O124  1  0.26656870  0.41018581  0.48204337  1
  O  O125  1  0.10124482  0.34434948  0.49840724  1
  C  C126  1  0.06557979  0.06499285  0.42990208  1
  C  C127  1  0.21169704  0.47680676  0.29928618  1
  O  O128  1  0.22580573  0.11541024  0.48021797  1
  C  C129  1  0.10684362  0.03286516  0.49063288  1
  O  O130  1  0.44814729  0.46113873  0.49165469  1
  C  C131  1  0.00945853  0.01991390  0.43481640  1
  O  O132  1  0.33935871  0.20694168  0.27963284  1
  C  C133  1  0.10534642  0.44082335  0.25519689  1
  H  H134  1  0.48691603  0.11567543  0.29103890  1
  C  C135  1  0.45471028  0.08098221  0.49886788  1
  C  C136  1  0.48211593  0.10577207  0.53472971  1
  H  H137  1  0.44656087  0.03217139  0.56891138  1
  H  H138  1  0.38309567  0.16228447  0.52929484  1
  C  C139  1  0.20335402  0.22507342  0.63456015  1
  H  H140  1  0.44550324  0.18944843  0.56061727  1
  C  C141  1  0.29710744  0.20686295  0.58689113  1
  H  H142  1  0.06264162  0.33642519  0.57302632  1
  C  C143  1  0.28578031  0.46284760  0.54034113  1
  C  C144  1  0.26034379  0.48821118  0.61013637  1
  O  O145  1  0.25850792  0.32020988  0.55697564  1
  C  C146  1  0.41853571  0.14449400  0.55102967  1
  H  H147  1  0.31492721  0.10027766  0.65158758  1
  H  H148  1  0.15729925  0.25555874  0.64724340  1
  O  O149  1  0.20497993  0.48342032  0.63127605  1
  C  C150  1  0.22102329  0.30513702  0.58629262  1
  H  H151  1  0.23166336  0.35925183  0.54715430  1
  O  O152  1  0.14892326  0.17969756  0.70113589  1
  C  C153  1  0.32924471  0.15343612  0.60139062  1
  O  O154  1  0.17181956  0.33351667  0.60149963  1
  C  C155  1  0.05472209  0.29162632  0.55602293  1
  C  C156  1  0.06542478  0.29667132  0.51406211  1
  H  H157  1  0.09911169  0.01436745  0.55992638  1
  C  C158  1  0.29923061  0.14209791  0.63581167  1
  C  C159  1  0.15246698  0.37692232  0.73010116  1
  C  C160  1  0.23904785  0.17610106  0.65134662  1
  O  O161  1  0.32562971  0.47936578  0.61883505  1
  O  O162  1  0.04855194  0.44584244  0.64376967  1
  O  O163  1  0.25453525  0.12750756  0.70760149  1
  Zn  Zn164  1  0.16945252  0.44340135  0.54039670  1
  H  H165  1  0.15118602  0.04086936  0.51134132  1
  C  C166  1  0.20826095  0.15794625  0.68780134  1
  Zn  Zn167  1  0.15694136  0.39923503  0.64870178  1
  O  O168  1  0.15237237  0.35865740  0.69723291  1
  C  C169  1  0.23868051  0.24268416  0.60242994  1
  Zn  Zn170  1  0.11097073  0.20603641  0.53943477  1
  O  O171  1  0.38393363  0.11978544  0.58473837  1
  H  H172  1  0.32686141  0.22398642  0.56294258  1
  Zn  Zn173  1  0.12557362  0.48668671  0.73731909  1
  C  C174  1  0.24717709  0.49889855  0.56925763  1
  H  H175  1  0.41187089  0.04394110  0.50303342  1
  C  C176  1  0.00820554  0.18605775  0.51051609  1
  C  C177  1  0.48264118  0.35581732  0.50026985  1
  C  C178  1  0.02476273  0.23791748  0.57371056  1
  Zn  Zn179  1  0.00490221  0.16846292  0.68744543  1
  H  H180  1  0.00948028  0.06229052  0.59799024  1
  O  O181  1  0.02033914  0.19493114  0.63190109  1
  C  C182  1  0.48124697  0.42338945  0.50776756  1
  C  C183  1  0.00206889  0.23909790  0.61231141  1
  H  H184  1  0.40160816  0.29252142  0.74841287  1
  C  C185  1  0.22311544  0.41480004  0.74813761  1
  C  C186  1  0.25387543  0.45668839  0.50269752  1
  H  H187  1  0.21254043  0.04806265  0.88931601  1
  O  O188  1  0.27344120  0.01915278  0.76759667  1
  C  C189  1  0.41158668  0.33771021  0.88494209  1
  O  O190  1  0.28822850  0.14528936  0.80859556  1
  C  C191  1  0.46962251  0.26494335  0.79354288  1
  C  C192  1  0.45652216  0.31654169  0.91370425  1
  C  C193  1  0.46981720  0.27766786  0.83544895  1
  O  O194  1  0.01864504  0.49698017  0.86435316  1
  C  C195  1  0.37473020  0.39407777  0.89000667  1
  C  C196  1  0.17616991  0.08562552  0.88218319  1
  C  C197  1  0.16005745  0.18080534  0.84817009  1
  Zn  Zn198  1  0.24270027  0.11337609  0.76035588  1
  C  C199  1  0.27502189  0.11672535  0.83667390  1
  H  H200  1  0.37859247  0.10139702  0.77518134  1
  H  H201  1  0.45506797  0.10009661  0.88277343  1
  C  C202  1  0.00831292  0.04217079  0.93472284  1
  C  C203  1  0.08898828  0.18947609  0.86383649  1
  H  H204  1  0.18303210  0.21373457  0.82941635  1
  C  C205  1  0.06364068  0.14484822  0.88915802  1
  C  C206  1  0.33697398  0.48601680  0.92505289  1
  C  C207  1  0.34964503  0.40457938  0.77448482  1
  H  H208  1  0.43426036  0.43401671  0.97462907  1
  H  H209  1  0.49785693  0.23927912  0.85130253  1
  C  C210  1  0.38239551  0.42452642  0.92292857  1
  C  C211  1  0.10546914  0.09230421  0.89899222  1
  O  O212  1  0.31475381  0.07028733  0.84565069  1
  C  C213  1  0.07419995  0.37224278  0.96336641  1
  C  C214  1  0.04722237  0.43428363  0.91278771  1
  O  O215  1  0.41585445  0.37412340  0.78201182  1
  C  C216  1  0.42606589  0.06940334  0.77253620  1
  C  C217  1  0.20145076  0.12881670  0.85754866  1
  C  C218  1  0.11461595  0.31179678  0.97643291  1
  C  C219  1  0.45192900  0.20040871  0.78893424  1
  O  O220  1  0.08281945  0.04571827  0.92131534  1
  H  H221  1  0.34198286  0.41312514  0.86897735  1
  C  C222  1  0.07949933  0.09600869  0.77436554  1
  C  C223  1  0.43155932  0.40471530  0.95030070  1
  Zn  Zn224  1  0.06153899  0.36961599  0.80258314  1
  C  C225  1  0.05486772  0.44987507  0.87286292  1
  H  H226  1  0.41173407  0.18257245  0.80939112  1
  O  O227  1  0.13426788  0.09987670  0.79268232  1
  O  O228  1  0.40562814  0.30349962  0.85059621  1
  C  C229  1  0.40953599  0.30714340  0.77773356  1
  O  O230  1  0.09334917  0.41992575  0.84999362  1
  C  C231  1  0.34646735  0.46667598  0.78317164  1
  H  H232  1  0.35091785  0.30082075  0.79127512  1
  H  H233  1  0.11449102  0.34746057  0.90868305  1
  C  C234  1  0.46982093  0.35068089  0.94540455  1
  C  C235  1  0.48983363  0.01282329  0.91477052  1
  C  C236  1  0.22750296  0.47552151  0.75767890  1
  C  C237  1  0.08105457  0.37987643  0.92613681  1
  O  O238  1  0.06095540  0.27551756  0.82647774  1
  C  C239  1  0.04055105  0.24235094  0.85124917  1
  H  H240  1  0.28877127  0.33108863  0.75234226  1
  H  H241  1  0.42679727  0.18838069  0.76144477  1
  C  C242  1  0.01271368  0.47661360  0.93541603  1
  C  C243  1  0.02709782  0.03888107  0.76942495  1
  O  O244  1  0.13816786  0.27772985  0.95311976  1
  C  C245  1  0.28661297  0.37926025  0.75744261  1
  H  H246  1  0.10577342  0.02609491  0.98892488  1
  C  C247  1  0.03964768  0.41778573  0.98558595  1
  C  C248  1  0.40762480  0.01091900  0.76204273  1
  C  C249  1  0.00616526  0.47092318  0.97324267  1
  H  H250  1  0.47626616  0.04345332  0.93857838  1
  C  C251  1  0.04418209  0.02172301  0.99742991  1
  O  O252  1  0.10581262  0.35182669  0.75189407  1
  H  H253  1  0.01153759  0.14733426  0.90344766  1
  H  H254  1  0.39163420  0.48826800  0.79791563  1
  C  C255  1  0.49968425  0.09299517  0.78004819  1
  H  H256  1  0.47827090  0.26975883  0.91354674  1
  H  H257  1  0.07377004  0.19889634  0.75604084  1
  C  C258  1  0.04186857  0.15673526  0.75741458  1
  O  O259  1  0.28451527  0.96300585  0.04855629  1
  C  C260  1  0.46963670  0.60711502  0.16893417  1
  C  C261  1  0.29442883  0.73189306  0.05099562  1
  H  H262  1  0.07690102  0.63409220  0.07561724  1
  O  O263  1  0.07262433  0.80690207  0.22429864  1
  C  C264  1  0.09690019  0.74860326  0.23421397  1
  H  H265  1  0.15644479  0.70095267  0.16483219  1
  C  C266  1  0.18288641  0.66105226  0.22843265  1
  C  C267  1  0.19678517  0.74613315  0.10315072  1
  C  C268  1  0.34555343  0.55612249  0.16092707  1
  Zn  Zn269  1  0.29437174  0.68978592  0.10306491  1
  C  C270  1  0.17637470  0.72778265  0.22009295  1
  H  H271  1  0.22929749  0.80780748  0.23894442  1
  O  O272  1  0.32960951  0.55587789  0.06222377  1
  H  H273  1  0.37885790  0.80821119  0.12500355  1
  C  C274  1  0.06473871  0.51554677  0.20914848  1
  C  C275  1  0.32108836  0.53562645  0.09217678  1
  C  C276  1  0.42924904  0.76183412  0.06076457  1
  O  O277  1  0.26276538  0.75889009  0.16819072  1
  C  C278  1  0.11946139  0.56131845  0.22162650  1
  O  O279  1  0.05912358  0.81122429  0.12469232  1
  C  C280  1  0.15422130  0.71975178  0.04047992  1
  O  O281  1  0.33081968  0.56951326  0.23922187  1
  C  C282  1  0.25831216  0.76560132  0.13254263  1
  H  H283  1  0.15038251  0.77759345  0.17194101  1
  H  H284  1  0.23427048  0.63722695  0.21608455  1
  H  H285  1  0.05500053  0.72073210  0.21924268  1
  C  C286  1  0.18394437  0.73811808  0.18067106  1
  C  C287  1  0.35360262  0.75606197  0.07692478  1
  O  O288  1  0.48867881  0.86531646  0.14403479  1
  H  H289  1  0.31077625  0.71896888  0.02265092  1
  C  C290  1  0.33227906  0.78425010  0.11058844  1
  H  H291  1  0.29584357  0.74176448  0.23331873  1
  H  H292  1  0.11004780  0.78598099  0.05942748  1
  O  O293  1  0.09350712  0.75726736  0.03840929  1
  C  C294  1  0.21589171  0.72909420  0.06674770  1
  H  H295  1  0.13649413  0.74672353  0.11019604  1
  C  C296  1  0.39183344  0.58369808  0.22291967  1
  C  C297  1  0.43030529  0.58553838  0.10891141  1
  H  H298  1  0.45762123  0.96450825  0.13201296  1
  H  H299  1  0.44187383  0.58714818  0.08010492  1
  C  C300  1  0.40292935  0.58076439  0.18346306  1
  C  C301  1  0.01048358  0.77426646  0.12231626  1
  O  O302  1  0.08019727  0.55359598  0.08846939  1
  O  O303  1  0.12211348  0.61832939  0.20857131  1
  C  C304  1  0.36763746  0.55890989  0.12493535  1
  O  O305  1  0.43841612  0.77247009  0.02874957  1
  H  H306  1  0.29018422  0.54057623  0.17076373  1
  H  H307  1  0.02261330  0.52670617  0.18657632  1
  O  O308  1  0.48387435  0.75377503  0.08143801  1
  C  C309  1  0.04141815  0.59034499  0.06994729  1
  O  O310  1  0.44816705  0.60577805  0.24016003  1
  C  C311  1  0.23731436  0.75672702  0.24201579  1
  O  O312  1  0.16179016  0.68168780  0.01653037  1
  C  C313  1  0.33141945  0.97298543  0.02501497  1
  C  C314  1  0.47783913  0.98829953  0.15623012  1
  H  H315  1  0.04475967  0.61766495  0.00554060  1
  C  C316  1  0.48491490  0.61190881  0.13269742  1
  C  C317  1  0.16820604  0.54140144  0.24857350  1
  C  C318  1  0.06484664  0.56340370  0.36949676  1
  O  O319  1  0.08201721  0.65738345  0.31989618  1
  O  O320  1  0.09024681  0.96956872  0.32679945  1
  C  C321  1  0.01356331  0.61177888  0.36653087  1
  Zn  Zn322  1  0.34973768  0.54598125  0.29499353  1
  C  C323  1  0.37145654  0.73064484  0.47174894  1
  C  C324  1  0.13249978  0.77362877  0.40102415  1
  O  O325  1  0.43258864  0.58575449  0.32937839  1
  O  O326  1  0.24683116  0.74025605  0.28201200  1
  H  H327  1  0.18580781  0.65657641  0.25841183  1
  H  H328  1  0.35364522  0.53367914  0.39772092  1
  H  H329  1  0.09950209  0.88929418  0.36931077  1
  O  O330  1  0.41893361  0.63444246  0.42366835  1
  H  H331  1  0.20727634  0.57660432  0.25743754  1
  O  O332  1  0.16640015  0.73161977  0.41521517  1
  H  H333  1  0.37887054  0.82066401  0.42346622  1
  C  C334  1  0.20676227  0.51122563  0.49265138  1
  C  C335  1  0.22007585  0.78074128  0.30585142  1
  C  C336  1  0.45077634  0.57856518  0.42074673  1
  O  O337  1  0.09050794  0.59657407  0.47367919  1
  C  C338  1  0.05995068  0.51481263  0.39460323  1
  C  C339  1  0.13170878  0.94086708  0.30635205  1
  H  H340  1  0.11674084  0.56578688  0.35392697  1
  C  C341  1  0.41204281  0.52804829  0.40734701  1
  C  C342  1  0.15744676  0.87861161  0.31955864  1
  O  O343  1  0.15096798  0.95647636  0.27491012  1
  H  H344  1  0.49962514  0.66531187  0.46499709  1
  H  H345  1  0.43756921  0.69437136  0.37380145  1
  Zn  Zn346  1  0.08264370  0.69018620  0.45542437  1
  O  O347  1  0.06525531  0.78612420  0.41415897  1
  H  H348  1  0.21869200  0.72163073  0.35387033  1
  H  H349  1  0.36659769  0.75020916  0.40240983  1
  C  C350  1  0.16240303  0.80216996  0.36558248  1
  O  O351  1  0.24383203  0.51777853  0.31492238  1
  H  H352  1  0.33222277  0.70150159  0.45604151  1
  C  C353  1  0.20017442  0.84146188  0.29687917  1
  H  H354  1  0.08994651  0.73688951  0.26305777  1
  C  C355  1  0.44130171  0.74438458  0.44653564  1
  H  H356  1  0.21806184  0.85885838  0.27046255  1
  C  C357  1  0.13775953  0.86079831  0.35402813  1
  C  C358  1  0.20332548  0.76591221  0.34278313  1
  C  C359  1  0.40977606  0.77672594  0.41486894  1
  C  C360  1  0.47271716  0.68191814  0.43945598  1
  H  H361  1  0.34255082  0.77540618  0.47685719  1
  H  H362  1  0.24035401  0.73010058  0.49431408  1
  H  H363  1  0.02066279  0.82843387  0.29076778  1
  O  O364  1  0.45724894  0.81060866  0.38599603  1
  H  H365  1  0.20471149  0.52472959  0.46449223  1
  C  C366  1  0.02809888  0.66217942  0.33914324  1
  C  C367  1  0.04470512  0.99419004  0.49669633  1
  C  C368  1  0.49261984  0.60799857  0.32019521  1
  C  C369  1  0.47289938  0.71217575  0.35122316  1
  C  C370  1  0.49924836  0.78346257  0.46310201  1
  C  C371  1  0.48430070  0.77574496  0.35800839  1
  H  H372  1  0.48178404  0.80113936  0.48936312  1
  O  O373  1  0.35843984  0.64135632  0.63689314  1
  H  H374  1  0.04693588  0.98515413  0.64768157  1
  C  C375  1  0.08221756  0.96673381  0.62751197  1
  O  O376  1  0.30633196  0.94471323  0.73268761  1
  Zn  Zn377  1  0.45308979  0.70659493  0.62098855  1
  H  H378  1  0.18252441  0.79976800  0.65109458  1
  C  C379  1  0.29088755  0.64233677  0.62703620  1
  Zn  Zn380  1  0.36920768  0.52396298  0.55591214  1
  C  C381  1  0.17460273  0.75736427  0.72671843  1
  C  C382  1  0.07128818  0.96824143  0.56178423  1
  C  C383  1  0.00516362  0.83969815  0.70518567  1
  O  O384  1  0.12335087  0.90970062  0.63821002  1
  C  C385  1  0.19745844  0.67032444  0.57522262  1
  C  C386  1  0.32985736  0.69524061  0.52917119  1
  Zn  Zn387  1  0.18708232  0.69768738  0.68293145  1
  C  C388  1  0.11376293  0.77135728  0.69805995  1
  C  C389  1  0.04121537  0.78255364  0.71330751  1
  H  H390  1  0.39270422  0.66246655  0.57330036  1
  C  C391  1  0.11002134  0.71655393  0.53109904  1
  O  O392  1  0.47757172  0.56879072  0.55229534  1
  C  C393  1  0.18944246  0.69620394  0.54118243  1
  H  H394  1  0.49413218  0.66193811  0.50608525  1
  O  O395  1  0.38826821  0.70860675  0.50689312  1
  C  C396  1  0.33349815  0.66903769  0.56403457  1
  C  C397  1  0.03359248  0.88091519  0.68194340  1
  H  H398  1  0.14849837  0.66783970  0.59273641  1
  C  C399  1  0.25251089  0.70474261  0.51988640  1
  O  O400  1  0.24030280  0.62795052  0.64785043  1
  C  C401  1  0.13438880  0.80991175  0.66866561  1
  O  O402  1  0.06485267  0.63501764  0.68668933  1
  C  C403  1  0.27248624  0.65963880  0.58726873  1
  O  O404  1  0.04988860  0.70358615  0.54852154  1
  C  C405  1  0.10012174  0.86883828  0.66179264  1
  O  O406  1  0.22785316  0.79334935  0.72923580  1
  O  O407  1  0.43130484  0.83387662  0.56376114  1
  C  C408  1  0.04752590  0.60833022  0.71474592  1
  O  O409  1  0.42070640  0.74954320  0.67127186  1
  C  C410  1  0.15160900  0.53599894  0.51858724  1
  H  H411  1  0.15125816  0.57110658  0.57430556  1
  O  O412  1  0.09911714  0.58608537  0.73434394  1
  C  C413  1  0.16936172  0.53278384  0.55658495  1
  O  O414  1  0.49656028  0.79833954  0.70899440  1
  C  C415  1  0.45686941  0.75231621  0.70024523  1
  H  H416  1  0.11222252  0.92734034  0.56258849  1
  C  C417  1  0.45379837  0.69533595  0.72112207  1
  H  H418  1  0.01382508  0.75222682  0.73333623  1
  Zn  Zn419  1  0.43885979  0.59791736  0.72183625  1
  O  O420  1  0.02547956  0.57361252  0.52210938  1
  H  H421  1  0.48724493  0.94279557  0.56313325  1
  C  C422  1  0.48526774  0.82477109  0.58331302  1
  C  C423  1  0.02696938  0.96358939  0.59689823  1
  O  O424  1  0.02745171  0.96640860  0.52855247  1
  H  H425  1  0.00029338  0.87808365  0.62656436  1
  C  C426  1  0.08646712  0.57274384  0.50430608  1
  H  H427  1  0.44233186  0.91951451  0.74905784  1
  H  H428  1  0.00817219  0.92531456  0.67857776  1
  H  H429  1  0.12746484  0.99942028  0.62254243  1
  C  C430  1  0.39091021  0.67985182  0.74453040  1
  H  H431  1  0.13785137  0.67921422  0.74937250  1
  O  O432  1  0.10779753  0.74232898  0.50050741  1
  H  H433  1  0.06724475  0.96470879  0.88044370  1
  Zn  Zn434  1  0.28224117  0.59904810  0.88170640  1
  C  C435  1  0.32470533  0.99107769  0.75062146  1
  C  C436  1  0.48811624  0.61025974  0.77812304  1
  O  O437  1  0.33959803  0.68468651  0.89473979  1
  O  O438  1  0.18338638  0.62624058  0.92849659  1
  H  H439  1  0.07874405  0.94332501  0.93968369  1
  C  C440  1  0.45329735  0.84353885  0.80963727  1
  O  O441  1  0.13549889  0.89077741  0.79227591  1
  C  C442  1  0.35082113  0.60683858  0.80054055  1
  C  C443  1  0.36975279  0.85426374  0.80645661  1
  O  O444  1  0.42078388  0.98089558  0.90075783  1
  O  O445  1  0.35917810  0.59150865  0.83164618  1
  Zn  Zn446  1  0.28189345  0.98105632  0.82385218  1
  C  C447  1  0.31579359  0.90340302  0.91442220  1
  H  H448  1  0.05238940  0.99163187  0.77636895  1
  O  O449  1  0.16495857  0.94799441  0.83897365  1
  C  C450  1  0.49778141  0.79871777  0.79337038  1
  Zn  Zn451  1  0.20731163  0.70082203  0.96487281  1
  O  O452  1  0.32631225  0.70383992  0.95349724  1
  H  H453  1  0.46222399  0.95033796  0.97834494  1
  O  O454  1  0.29368914  0.50505182  0.89941899  1
  Zn  Zn455  1  0.23784850  0.87968089  0.76149898  1
  H  H456  1  0.47546438  0.66305818  0.87389124  1
  C  C457  1  0.38739295  0.94346393  0.92398333  1
  C  C458  1  0.12165560  0.91310497  0.82224119  1
  C  C459  1  0.28632805  0.50866588  0.77622681  1
  H  H460  1  0.07035619  0.61950412  0.96559285  1
  O  O461  1  0.16731839  0.63033756  0.87048108  1
  C  C462  1  0.20276693  0.83478412  0.93083116  1
  C  C463  1  0.45094764  0.63557716  0.96707218  1
  C  C464  1  0.36476293  0.68676457  0.92579763  1
  O  O465  1  0.34332290  0.89722374  0.82581590  1
  C  C466  1  0.03386555  0.92099242  0.87522749  1
  H  H467  1  0.31952068  0.87375046  0.88958958  1
  C  C468  1  0.05583854  0.63974460  0.90803330  1
  C  C469  1  0.05238091  0.88998860  0.84164540  1
  C  C470  1  0.33290203  0.93300098  0.99091531  1
  O  O471  1  0.19099408  0.79713286  0.95701882  1
  H  H472  1  0.44863901  0.92313205  0.84319534  1
  C  C473  1  0.46102294  0.96512671  0.75901548  1
  C  C474  1  0.43925032  0.65411097  0.93080839  1
  O  O475  1  0.17953439  0.82516911  0.90047583  1
  O  O476  1  0.32279379  0.82513633  0.78704456  1
  C  C477  1  0.13670709  0.62983558  0.90086130  1
  C  C478  1  0.25324569  0.88728791  0.93949494  1
  Zn  Zn479  1  0.31769669  0.70455296  0.78981395  1
  O  O480  1  0.18263231  0.70004881  0.75791592  1
  C  C481  1  0.40630203  0.93292645  0.96669673  1
  H  H482  1  0.47074498  0.76166128  0.77766576  1
  Zn  Zn483  1  0.28667759  0.97984825  0.94075232  1
  O  O484  1  0.33685737  0.51268372  0.95340470  1
  C  C485  1  0.25703049  0.90833559  0.97823948  1
  C  C486  1  0.03273369  0.63643499  0.94407325  1
  O  O487  1  0.28219091  0.56774038  0.78248820  1
  C  C488  1  0.41021118  0.63795931  0.77525973  1
  H  H489  1  0.03910272  0.90614394  0.97858956  1
  C  C490  1  0.48976926  0.88912396  0.83191090  1
  H  H491  1  0.41239701  0.64640608  0.98906169  1
  C  C492  1  0.00077794  0.65075184  0.88144805  1
  C  C493  1  0.02521392  0.93645116  0.95470677  1
  H  H494  1  0.49930298  0.99591599  0.84162503  1
  C  C495  1  0.48875679  0.64556050  0.90204398  1
  Zn  Zn496  1  0.41269964  0.85700177  0.99902111  1
  H  H497  1  0.01877891  0.65345033  0.85302810  1
  H  H498  1  0.20897073  0.89369727  0.99629035  1
  C  C499  1  0.90332149  0.12713991  0.04821210  1
  O  O500  1  0.63137136  0.20442774  0.14369909  1
  C  C501  1  0.65095258  0.25575196  0.13928009  1
  C  C502  1  0.90260350  0.07038908  0.03092233  1
  O  O503  1  0.84865998  0.45492407  0.15107850  1
  O  O504  1  0.89462262  0.23865274  0.09087843  1
  C  C505  1  0.59724248  0.41805391  0.10721282  1
  O  O506  1  0.50864738  0.15644065  0.03827516  1
  C  C507  1  0.76839760  0.41016349  0.02357784  1
  O  O508  1  0.99652624  0.01217160  0.22756169  1
  O  O509  1  0.62932594  0.47173958  0.10785400  1
  Zn  Zn510  1  0.69078369  0.03203444  0.00893514  1
  C  C511  1  0.90073565  0.01916899  0.05428698  1
  C  C512  1  0.88670584  0.41014001  0.14335803  1
  H  H513  1  0.83083753  0.25465284  0.24886055  1
  C  C514  1  0.63000104  0.36509245  0.12358926  1
  C  C515  1  0.75104815  0.46732233  0.03637214  1
  C  C516  1  0.92335665  0.08099599  0.10801182  1
  C  C517  1  0.60156350  0.08679104  0.02373384  1
  C  C518  1  0.75852018  0.35193094  0.04617790  1
  C  C519  1  0.92131998  0.19278035  0.10452601  1
  Zn  Zn520  1  0.80472702  0.29438053  0.11486514  1
  O  O521  1  0.54222440  0.23306304  0.22733420  1
  H  H522  1  0.72590206  0.47086613  0.06329574  1
  O  O523  1  0.86381795  0.35452008  0.14976693  1
  C  C524  1  0.98127802  0.47636257  0.11675556  1
  O  O525  1  0.71381174  0.27647998  0.15186406  1
  C  C526  1  0.61536014  0.03791649  0.05219582  1
  O  O527  1  0.75688600  0.30089874  0.03102954  1
  C  C528  1  0.91204883  0.02397459  0.09160550  1
  C  C529  1  0.95238828  0.13970351  0.23033187  1
  C  C530  1  0.96566490  0.25403397  0.22082294  1
  O  O531  1  0.93615595  0.30750230  0.22266571  1
  C  C532  1  0.57945172  0.15012168  0.03457633  1
  H  H533  1  0.91553815  0.49339782  0.04045252  1
  C  C534  1  0.91701084  0.13241453  0.08505676  1
  C  C535  1  0.60185335  0.30684026  0.12170958  1
  H  H536  1  0.51513262  0.24761937  0.09739661  1
  C  C537  1  0.96439932  0.41505789  0.12633914  1
  C  C538  1  0.92228455  0.19855996  0.23377473  1
  H  H539  1  0.60143180  0.04935688  0.08097225  1
  H  H540  1  0.93377835  0.08726311  0.13728985  1
  O  O541  1  0.94956671  0.19411444  0.13643328  1
  O  O542  1  0.74991868  0.35681508  0.07941010  1
  H  H543  1  0.68316745  0.37298805  0.13887414  1
  O  O544  1  0.62939104  0.19021051  0.03291552  1
  H  H545  1  0.90387667  0.16802993  0.02991780  1
  C  C546  1  0.52404150  0.40320182  0.09381329  1
  H  H547  1  0.56231859  0.49576220  0.06073058  1
  H  H548  1  0.66289702  0.13931490  0.23208855  1
  H  H549  1  0.99007742  0.31418767  0.13033551  1
  C  C550  1  0.53706835  0.29517159  0.10140478  1
  C  C551  1  0.94027263  0.02736401  0.24623861  1
  C  C552  1  0.52051047  0.03681795  0.22252886  1
  C  C553  1  0.84844699  0.20617853  0.24785880  1
  C  C554  1  0.90891086  0.09226623  0.24385232  1
  C  C555  1  0.51568290  0.28554788  0.21818141  1
  C  C556  1  0.51161489  0.34406641  0.24047050  1
  H  H557  1  0.54192555  0.25411727  0.28208179  1
  C  C558  1  0.51508027  0.45765798  0.41547777  1
  O  O559  1  0.51331120  0.04960537  0.47858533  1
  C  C560  1  0.59792917  0.16214706  0.31793060  1
  O  O561  1  0.75370369  0.08744685  0.41593879  1
  C  C562  1  0.57399882  0.00341512  0.38851950  1
  O  O563  1  0.94505916  0.16588816  0.45566718  1
  C  C564  1  0.65665538  0.17796414  0.38666397  1
  O  O565  1  0.66655876  0.44611358  0.44293693  1
  C  C566  1  0.52154987  0.12796418  0.26662089  1
  C  C567  1  0.70654693  0.11189675  0.43731489  1
  O  O568  1  0.50383879  0.46260368  0.26063161  1
  Zn  Zn569  1  0.95118462  0.28150776  0.48626522  1
  H  H570  1  0.69180149  0.14934697  0.36884729  1
  H  H571  1  0.54399450  0.31598203  0.38594065  1
  Zn  Zn572  1  0.64688390  0.34672835  0.43634158  1
  C  C573  1  0.59576238  0.26667346  0.43288581  1
  C  C574  1  0.59432802  0.28593398  0.39538707  1
  H  H575  1  0.79550740  0.42673500  0.48523419  1
  H  H576  1  0.54515774  0.41446241  0.41445633  1
  H  H577  1  0.64590233  0.20631123  0.47698464  1
  O  O578  1  0.57457085  0.22362235  0.33825490  1
  H  H579  1  0.67335831  0.08646933  0.26630014  1
  H  H580  1  0.57317483  0.11879872  0.32863968  1
  C  C581  1  0.62946378  0.49321704  0.44999065  1
  O  O582  1  0.71154051  0.10035608  0.47069583  1
  C  C583  1  0.95849731  0.00811690  0.40316731  1
  C  C584  1  0.61922448  0.20483168  0.45049793  1
  C  C585  1  0.51700339  0.02413752  0.36575032  1
  C  C586  1  0.57105965  0.01089793  0.42582342  1
  C  C587  1  0.65510115  0.16137553  0.42433308  1
  Zn  Zn588  1  0.54488156  0.18938721  0.41073883  1
  C  C589  1  0.90324705  0.32660433  0.40699788  1
  C  C590  1  0.60844236  0.23211158  0.36937050  1
  H  H591  1  0.65783731  0.16892374  0.32717156  1
  O  O592  1  0.53969436  0.06373330  0.25511428  1
  O  O593  1  0.66862121  0.39780067  0.31366736  1
  C  C594  1  0.58945588  0.16457420  0.27850183  1
  O  O595  1  0.96472071  0.04125643  0.37538416  1
  O  O596  1  0.86626478  0.28637229  0.39579269  1
  C  C597  1  0.66761701  0.13810767  0.26279366  1
  O  O598  1  0.94032938  0.36637891  0.41782130  1
  Zn  Zn599  1  0.99080013  0.02097571  0.31881684  1
  H  H600  1  0.80349707  0.05977193  0.26678497  1
  H  H601  1  0.52235390  0.01790088  0.33538892  1
  C  C602  1  0.67334493  0.37543686  0.28558798  1
  C  C603  1  0.95224803  0.14767197  0.48622135  1
  H  H604  1  0.63899462  0.25261397  0.26327326  1
  C  C605  1  0.58436810  0.22782271  0.26558471  1
  C  C606  1  0.51210201  0.04380298  0.44300544  1
  O  O607  1  0.67940735  0.34866810  0.25805949  1
  O  O608  1  0.72748608  0.16806014  0.27710622  1
  H  H609  1  0.55525318  0.35708623  0.26123328  1
  H  H610  1  0.98500676  0.47976077  0.43571174  1
  O  O611  1  0.91422455  0.10394543  0.49934329  1
  C  C612  1  0.80457458  0.15802122  0.26073719  1
  C  C613  1  0.83474592  0.10012449  0.25723652  1
  C  C614  1  0.97782009  0.01891581  0.59766963  1
  C  C615  1  0.78726295  0.19016369  0.56789724  1
  H  H616  1  0.83079470  0.18534414  0.70874927  1
  H  H617  1  0.61936664  0.35549775  0.73346361  1
  O  O618  1  0.92661928  0.02243449  0.63038883  1
  O  O619  1  0.68757068  0.38439879  0.67751675  1
  O  O620  1  0.79922525  0.34398190  0.66931425  1
  H  H621  1  0.84124604  0.05127002  0.68186422  1
  C  C622  1  0.82457834  0.07700694  0.65797433  1
  O  O623  1  0.95774791  0.27142647  0.73009404  1
  O  O624  1  0.67322201  0.16604432  0.69621776  1
  O  O625  1  0.57076654  0.03950101  0.58326589  1
  O  O626  1  0.84379439  0.22815624  0.71154342  1
  C  C627  1  0.74435331  0.34807839  0.73037129  1
  Zn  Zn628  1  0.90504868  0.31122656  0.67614052  1
  C  C629  1  0.50081249  0.04996049  0.55604599  1
  C  C630  1  0.51949186  0.25368886  0.51716786  1
  C  C631  1  0.77132656  0.48120835  0.62650081  1
  C  C632  1  0.74290781  0.36088853  0.69016229  1
  H  H633  1  0.71808368  0.19758955  0.63073332  1
  C  C634  1  0.76756279  0.12082926  0.65869399  1
  C  C635  1  0.71989121  0.12639101  0.69284240  1
  O  O636  1  0.96202591  0.28175943  0.62401046  1
  C  C637  1  0.75877436  0.15999319  0.62921514  1
  H  H638  1  0.86082509  0.39343550  0.73691616  1
  O  O639  1  0.73188053  0.08594481  0.71699618  1
  H  H640  1  0.95638231  0.15144638  0.56358911  1
  O  O641  1  0.97305427  0.39745994  0.67984283  1
  H  H642  1  0.84990669  0.10412475  0.74354252  1
  C  C643  1  0.55142720  0.14506248  0.53451537  1
  H  H644  1  0.70721405  0.43041231  0.58248836  1
  O  O645  1  0.55938598  0.21551558  0.53752389  1
  C  C646  1  0.96040381  0.15926669  0.74238379  1
  C  C647  1  0.91511308  0.45017020  0.63189894  1
  Zn  Zn648  1  0.79524155  0.09283467  0.50870770  1
  H  H649  1  0.57789338  0.12648520  0.56097698  1
  Zn  Zn650  1  0.78498311  0.32379736  0.56608890  1
  C  C651  1  0.85545035  0.10068562  0.59698563  1
  C  C652  1  0.90908968  0.41948714  0.59666553  1
  O  O653  1  0.81207937  0.17212510  0.53650927  1
  C  C654  1  0.87198585  0.06554645  0.62912813  1
  C  C655  1  0.80414335  0.14717045  0.59877001  1
  H  H656  1  0.89065515  0.09644256  0.57283694  1
  C  C657  1  0.76424847  0.43675104  0.59582762  1
  C  C658  1  0.52594190  0.31723013  0.52191817  1
  C  C659  1  0.83295083  0.41256248  0.57632735  1
  C  C660  1  0.82750215  0.40016542  0.53497068  1
  O  O661  1  0.74180013  0.23311102  0.57142682  1
  H  H662  1  0.95549959  0.38552654  0.59052595  1
  C  C663  1  0.84282521  0.46891566  0.64891328  1
  C  C664  1  0.91313973  0.10153938  0.74690291  1
  O  O665  1  0.88177969  0.38177932  0.51878041  1
  H  H666  1  0.56420449  0.33632182  0.54245676  1
  O  O667  1  0.76177512  0.43008556  0.50576075  1
  C  C668  1  0.92989646  0.21992611  0.72794022  1
  H  H669  1  0.53333218  0.48152482  0.53748562  1
  O  O670  1  0.53267942  0.43734550  0.53880698  1
  H  H671  1  0.58504937  0.13972258  0.50784436  1
  C  C672  1  0.98215840  0.43277235  0.65333137  1
  H  H673  1  0.52724112  0.01264679  0.53920352  1
  H  H674  1  0.94570935  0.02328811  0.57206400  1
  H  H675  1  0.83543333  0.46596484  0.67943630  1
  C  C676  1  0.67197222  0.34497674  0.74864624  1
  C  C677  1  0.99931015  0.18411660  0.55164797  1
  C  C678  1  0.81154712  0.45868915  0.97015970  1
  C  C679  1  0.66599711  0.33568454  0.79055965  1
  H  H680  1  0.61294278  0.06058435  0.77715877  1
  O  O681  1  0.61219909  0.31105511  0.80626752  1
  O  O682  1  0.56214910  0.27347554  0.96817902  1
  C  C683  1  0.74501342  0.13884954  0.86543367  1
  Zn  Zn684  1  0.66706266  0.26164203  0.99672930  1
  O  O685  1  0.85202212  0.49528946  0.91113162  1
  O  O686  1  0.51790495  0.14898732  0.78979435  1
  H  H687  1  0.73323037  0.37183107  0.84004252  1
  H  H688  1  0.84908069  0.18686853  0.88736299  1
  H  H689  1  0.99051924  0.08976041  0.94139430  1
  H  H690  1  0.61767858  0.08780933  0.92727263  1
  H  H691  1  0.64169218  0.09991144  0.85238118  1
  H  H692  1  0.81189867  0.35869033  0.97693034  1
  C  C693  1  0.66685560  0.21410790  0.91048995  1
  H  H694  1  0.59338039  0.02127391  0.83322001  1
  C  C695  1  0.88285581  0.37065793  0.81126846  1
  O  O696  1  0.85897855  0.09958280  0.83955920  1
  O  O697  1  0.88404256  0.38271218  0.84522800  1
  O  O698  1  0.55026498  0.16116595  0.89665960  1
  C  C699  1  0.58304088  0.06452989  0.98764680  1
  H  H700  1  0.67004065  0.04747829  0.89352321  1
  Zn  Zn701  1  0.90737684  0.32236631  0.88864508  1
  C  C702  1  0.81051453  0.36345290  0.79226329  1
  H  H703  1  0.53418110  0.32710219  0.76257350  1
  C  C704  1  0.78684085  0.18194016  0.88630132  1
  C  C705  1  0.94551809  0.04322109  0.76202008  1
  C  C706  1  0.62344799  0.16980393  0.89199723  1
  C  C707  1  0.54775509  0.04183306  0.89006901  1
  H  H708  1  0.52546637  0.10950758  0.84920298  1
  C  C709  1  0.73765438  0.35785320  0.81081185  1
  C  C710  1  0.79079762  0.09885738  0.83918032  1
  C  C711  1  0.74655235  0.21747085  0.90890506  1
  C  C712  1  0.55312305  0.04636944  0.77394138  1
  H  H713  1  0.63645988  0.24534634  0.92839233  1
  C  C714  1  0.80228777  0.40400666  0.98952106  1
  O  O715  1  0.85084547  0.27202905  0.93078144  1
  C  C716  1  0.66957215  0.13461677  0.86811653  1
  C  C717  1  0.52667584  0.32389651  0.97344171  1
  C  C718  1  0.54224036  0.28729900  0.77960270  1
  O  O719  1  0.87714825  0.40094348  0.92509935  1
  O  O720  1  0.94088894  0.37341398  0.79182098  1
  H  H721  1  0.56913117  0.25235229  0.76210444  1
  O  O722  1  0.73882548  0.29280232  0.95569953  1
  C  C723  1  0.78067940  0.26510719  0.93212778  1
  C  C724  1  0.84742706  0.45133495  0.93259212  1
  H  H725  1  0.55093721  0.09577081  0.96887230  1
  Zn  Zn726  1  0.97304461  0.11490545  0.79749441  1
  H  H727  1  0.51352930  0.31879251  0.84144693  1
  C  C728  1  0.61826523  0.04441594  0.91133854  1
  O  O729  1  0.75167971  0.06513857  0.81846721  1
  Zn  Zn730  1  0.76439266  0.28660924  0.76964629  1
  H  H731  1  0.96801533  0.02922196  0.91087492  1
  Zn  Zn732  1  0.89142515  0.48564221  0.86004768  1
  O  O733  1  0.97512860  0.24686583  0.86451521  1
  C  C734  1  0.51826259  0.10151063  0.87800325  1
  H  H735  1  0.87887449  0.01358741  0.95356562  1
  O  O736  1  0.89570264  0.06397761  0.99497642  1
  C  C737  1  0.61638315  0.00459733  0.97084739  1
  C  C738  1  0.55788180  0.00051332  0.85564866  1
  O  O739  1  0.54679937  0.35804042  0.99687937  1
  C  C740  1  0.81138861  0.37128248  0.75108527  1
  C  C741  1  0.68406961  0.66112905  0.15620824  1
  C  C742  1  0.62635314  0.97172697  0.04007756  1
  O  O743  1  0.53047402  0.85000114  0.19907759  1
  C  C744  1  0.56998987  0.63113618  0.08178636  1
  O  O745  1  0.88245366  0.91665593  0.09919556  1
  H  H746  1  0.62941329  0.54000841  0.01450444  1
  C  C747  1  0.91296207  0.60976261  0.07022624  1
  C  C748  1  0.98928355  0.63379544  0.01877423  1
  C  C749  1  0.60112663  0.58213348  0.02645642  1
  H  H750  1  0.54969595  0.94698968  0.23794423  1
  O  O751  1  0.81827586  0.85158150  0.16202258  1
  C  C752  1  0.50816818  0.88436565  0.17555339  1
  O  O753  1  0.68292244  0.51902487  0.20413962  1
  C  C754  1  0.85931730  0.84803075  0.22167221  1
  H  H755  1  0.92669941  0.65121376  0.08660933  1
  C  C756  1  0.72606297  0.69690357  0.13193616  1
  C  C757  1  0.58619072  0.52148566  0.08424539  1
  C  C758  1  0.64200476  0.93083055  0.07100354  1
  H  H759  1  0.78401135  0.52687749  0.15643721  1
  O  O760  1  0.60205080  0.88376968  0.07184320  1
  O  O761  1  0.96029515  0.73941855  0.12204250  1
  C  C762  1  0.90786150  0.96732359  0.11470250  1
  H  H763  1  0.82591362  0.70193773  0.10069485  1
  H  H764  1  0.60291541  0.67512990  0.07613009  1
  C  C765  1  0.81473821  0.60816022  0.12328627  1
  C  C766  1  0.97754661  0.58871596  0.04943006  1
  O  O767  1  0.52896292  0.58489019  0.01596898  1
  H  H768  1  0.63168897  0.67844014  0.16954207  1
  O  O769  1  0.73367294  0.78957918  0.10046059  1
  Zn  Zn770  1  0.64319644  0.80588385  0.19847695  1
  H  H771  1  0.62946198  0.62512724  0.01665430  1
  C  C772  1  0.70145728  0.76143334  0.12442951  1
  H  H773  1  0.89405671  0.97337576  0.04163073  1
  C  C774  1  0.61968770  0.57844488  0.06999799  1
  Zn  Zn775  1  0.77733848  0.88647068  0.11333922  1
  O  O776  1  0.64418899  0.78554114  0.14243779  1
  O  O777  1  0.73077045  0.87059311  0.20361914  1
  C  C778  1  0.66995500  0.57291540  0.19634546  1
  H  H779  1  0.51829869  0.63402894  0.06445902  1
  C  C780  1  0.79143332  0.67082515  0.11739738  1
  O  O781  1  0.54913844  0.64009123  0.12038639  1
  H  H782  1  0.71365090  0.63485063  0.07130479  1
  O  O783  1  0.75074630  0.57702711  0.03343222  1
  C  C784  1  0.77134384  0.57620866  0.14914768  1
  Zn  Zn785  1  0.55361994  0.81976800  0.10632320  1
  C  C786  1  0.71296717  0.60458039  0.16576764  1
  O  O787  1  0.67632892  0.71076461  0.02098096  1
  O  O788  1  0.68708845  0.94420904  0.09706327  1
  C  C789  1  0.79784791  0.85787317  0.19533980  1
  O  O790  1  0.61801715  0.60148501  0.21231887  1
  C  C791  1  0.93388707  0.83261693  0.21044590  1
  H  H792  1  0.86338308  0.61669072  0.05091603  1
  H  H793  1  0.95253262  0.83850259  0.18152195  1
  C  C794  1  0.69929336  0.58302574  0.07183952  1
  H  H795  1  0.54217640  0.52661790  0.10454182  1
  O  O796  1  0.86981820  0.58083100  0.10580804  1
  C  C797  1  0.99039824  0.82179473  0.23527763  1
  C  C798  1  0.96703611  0.51820785  0.03238854  1
  H  H799  1  0.71962800  0.55806599  0.09564576  1
  C  C800  1  0.61417697  0.95596309  0.00290979  1
  C  C801  1  0.52610061  0.97471196  0.21757166  1
  O  O802  1  0.93541041  0.96971008  0.14405466  1
  C  C803  1  0.50247520  0.95221538  0.18503784  1
  H  H804  1  0.50419421  0.62701503  0.18946380  1
  C  C805  1  0.76705409  0.52414317  0.01935771  1
  H  H806  1  0.93908375  0.51409634  0.11838648  1
  C  C807  1  0.70177803  0.75288518  0.00458485  1
  H  H808  1  0.99270698  0.68301847  0.02752081  1
  Zn  Zn809  1  0.55023931  0.54994005  0.24674337  1
  H  H810  1  0.61680693  0.98707803  0.44156638  1
  H  H811  1  0.83290133  0.85429820  0.45027430  1
  O  O812  1  0.93525963  0.84720660  0.34163367  1
  C  C813  1  0.99812590  0.98660918  0.46645544  1
  C  C814  1  0.55731206  0.70546985  0.30094703  1
  H  H815  1  0.73134523  0.70179222  0.47999203  1
  C  C816  1  0.60144391  0.71265877  0.49303030  1
  H  H817  1  0.58831939  0.68144478  0.27935699  1
  C  C818  1  0.94831962  0.61256932  0.38842698  1
  C  C819  1  0.52875393  0.80165799  0.33080136  1
  C  C820  1  0.83811732  0.85015310  0.25882712  1
  O  O821  1  0.82117586  0.59087026  0.43543914  1
  C  C822  1  0.91860920  0.75604469  0.45902430  1
  C  C823  1  0.94239796  0.56547527  0.41285642  1
  C  C824  1  0.87464305  0.55775090  0.43854810  1
  C  C825  1  0.86010969  0.85169316  0.47720610  1
  H  H826  1  0.90363065  0.64624665  0.38453562  1
  H  H827  1  0.94900726  0.95514756  0.46849169  1
  O  O828  1  0.81412394  0.85258424  0.33223530  1
  C  C829  1  0.62117539  0.79944756  0.27785121  1
  O  O830  1  0.65551559  0.53741495  0.47073299  1
  C  C831  1  0.89988346  0.84558401  0.28143282  1
  O  O832  1  0.95543579  0.70640915  0.46893709  1
  H  H833  1  0.52342639  0.68180474  0.42152462  1
  O  O834  1  0.64943961  0.77141742  0.25145691  1
  O  O835  1  0.91393117  0.99984951  0.27258353  1
  C  C836  1  0.90841473  0.80255905  0.48685146  1
  H  H837  1  0.54424235  0.85052260  0.33432677  1
  O  O838  1  0.63281720  0.85487412  0.28310482  1
  Zn  Zn839  1  0.71448869  0.89419500  0.32053715  1
  O  O840  1  0.54091310  0.57653572  0.30408389  1
  C  C841  1  0.56611510  0.76808787  0.30321684  1
  O  O842  1  0.70080100  0.95375895  0.38787434  1
  C  C843  1  0.88280184  0.85325921  0.32032624  1
  C  C844  1  0.97472852  0.83071834  0.27123678  1
  H  H845  1  0.78097143  0.85840292  0.26977413  1
  O  O846  1  0.63417653  0.95485453  0.33914957  1
  Zn  Zn847  1  0.79129395  0.99289767  0.41550020  1
  Zn  Zn848  1  0.96693625  0.77482043  0.37988782  1
  O  O849  1  0.89566116  0.76213787  0.42786842  1
  O  O850  1  0.76449083  0.95629835  0.46732380  1
  H  H851  1  0.55462161  0.59903513  0.45043136  1
  O  O852  1  0.58594736  0.76198664  0.47444317  1
  O  O853  1  0.90494921  0.97074116  0.40533259  1
  C  C854  1  0.52401338  0.56465330  0.43483153  1
  O  O855  1  0.98534666  0.70994728  0.33642181  1
  C  C856  1  0.50458128  0.67762392  0.32468975  1
  Zn  Zn857  1  0.76252631  0.52233075  0.49310559  1
  C  C858  1  0.64007514  0.96973604  0.37174084  1
  H  H859  1  0.52291077  0.82132322  0.44563370  1
  C  C860  1  0.55556064  0.50601787  0.43368421  1
  O  O861  1  0.87061188  0.51392755  0.46158217  1
  C  C862  1  0.80502388  0.95431203  0.49467219  1
  C  C863  1  0.99310649  0.51757071  0.41522149  1
  O  O864  1  0.79202692  0.68736505  0.68662002  1
  C  C865  1  0.78753154  0.63812300  0.53698746  1
  C  C866  1  0.81482094  0.62482336  0.74083377  1
  C  C867  1  0.52815753  0.66437252  0.72496629  1
  C  C868  1  0.51448781  0.60601858  0.57053753  1
  H  H869  1  0.68907991  0.68496048  0.71259861  1
  Zn  Zn870  1  0.86382600  0.51409787  0.59558886  1
  C  C871  1  0.85439192  0.89902497  0.50197244  1
  C  C872  1  0.58705774  0.86218462  0.62531475  1
  C  C873  1  0.55180626  0.66855106  0.51623953  1
  H  H874  1  0.65532589  0.51948777  0.70768088  1
  C  C875  1  0.97993416  0.90548617  0.60068402  1
  Zn  Zn876  1  0.73145304  0.99128286  0.71117282  1
  Zn  Zn877  1  0.62732894  0.72684990  0.54641850  1
  C  C878  1  0.69476652  0.89132314  0.66404129  1
  C  C879  1  0.57737626  0.98311965  0.59566733  1
  Zn  Zn880  1  0.95960411  0.66250954  0.52001280  1
  C  C881  1  0.57109986  0.64211655  0.55109391  1
  H  H882  1  0.69740277  0.70346938  0.66368035  1
  C  C883  1  0.71116311  0.66291789  0.53400996  1
  H  H884  1  0.56613729  0.62952868  0.66813883  1
  H  H885  1  0.95162732  0.66970195  0.68430865  1
  C  C886  1  0.94151709  0.85387746  0.54461535  1
  H  H887  1  0.59026840  0.81623872  0.63807698  1
  O  O888  1  0.72563394  0.52438225  0.63624230  1
  C  C889  1  0.96371917  0.60667562  0.72620200  1
  O  O890  1  0.68921420  0.83861939  0.67698934  1
  H  H891  1  0.59531198  0.55804338  0.64326884  1
  O  O892  1  0.74752858  0.92695850  0.67175053  1
  H  H893  1  0.75508635  0.62572473  0.74793894  1
  H  H894  1  0.67252395  0.60136349  0.57913844  1
  C  C895  1  0.89413710  0.90217365  0.53409002  1
  C  C896  1  0.63470517  0.96682828  0.62097134  1
  C  C897  1  0.68832193  0.60350102  0.67854433  1
  Zn  Zn898  1  0.61305043  0.81403239  0.71861206  1
  O  O899  1  0.58666642  0.56128022  0.74177969  1
  O  O900  1  0.50091595  0.62135516  0.60309426  1
  C  C901  1  0.75435233  0.56899055  0.66415003  1
  C  C902  1  0.65386704  0.63561596  0.56026969  1
  C  C903  1  0.94809656  0.80642513  0.51925159  1
  O  O904  1  0.80627158  0.99982618  0.51618911  1
  Zn  Zn905  1  0.91866218  0.83806065  0.74085802  1
  C  C906  1  0.63667432  0.90875494  0.63570406  1
  H  H907  1  0.57375355  0.68241952  0.70623972  1
  O  O908  1  0.79255463  0.58056984  0.53610645  1
  H  H909  1  0.79655218  0.60226827  0.65231831  1
  O  O910  1  0.84406042  0.67290833  0.53347059  1
  C  C911  1  0.60488110  0.59003330  0.66587816  1
  C  C912  1  0.71295866  0.66909450  0.68698962  1
  H  H913  1  0.67474318  0.99893266  0.63199153  1
  C  C914  1  0.92079458  0.64640651  0.70478178  1
  H  H915  1  0.89081028  0.94261381  0.55074771  1
  C  C916  1  0.84144983  0.65468604  0.70964355  1
  C  C917  1  0.63918414  0.56844801  0.70243773  1
  O  O918  1  0.51147342  0.76961321  0.58975693  1
  H  H919  1  0.92147901  0.92107054  0.60407186  1
  C  C920  1  0.53438096  0.87507221  0.59870064  1
  H  H921  1  0.98816285  0.76792441  0.52658599  1
  C  C922  1  0.52924763  0.93522792  0.58496158  1
  O  O923  1  0.98004088  0.85080453  0.57662869  1
  C  C924  1  0.54261558  0.60470557  0.74718028  1
  C  C925  1  0.68690409  0.69491007  0.50142148  1
  H  H926  1  0.78071432  0.54710819  0.68896729  1
  O  O927  1  0.58633033  0.88875870  0.74989817  1
  C  C928  1  0.61207306  0.59664691  0.88350818  1
  O  O929  1  0.75628098  0.56713816  0.80058332  1
  C  C930  1  0.84465161  0.86046310  0.81455282  1
  C  C931  1  0.56478401  0.58830579  0.94750853  1
  O  O932  1  0.84503382  0.83217001  0.78475901  1
  C  C933  1  0.79772036  0.51547386  0.98335398  1
  O  O934  1  0.63301004  0.74384610  0.75928330  1
  H  H935  1  0.84863613  0.66131314  0.93676542  1
  H  H936  1  0.51564990  0.59621763  0.80507022  1
  O  O937  1  0.66884781  0.56600893  0.89073151  1
  O  O938  1  0.79684812  0.65850010  0.87068635  1
  C  C939  1  0.91226405  0.85148596  0.83771106  1
  O  O940  1  0.96200368  0.89911191  0.93433037  1
  H  H941  1  0.84270254  0.87493299  0.88531314  1
  C  C942  1  0.53483502  0.98651408  0.76247365  1
  C  C943  1  0.63272264  0.75350985  0.79192698  1
  Zn  Zn944  1  0.75127442  0.97641938  0.80050100  1
  C  C945  1  0.85904518  0.58882288  0.76351363  1
  Zn  Zn946  1  0.71057760  0.64708817  0.82965786  1
  C  C947  1  0.56489486  0.89232004  0.84030402  1
  C  C948  1  0.99878586  0.99723704  0.96723852  1
  H  H949  1  0.66986720  0.83822153  0.83552496  1
  O  O950  1  0.93254477  0.63991053  0.98967324  1
  O  O951  1  0.68656263  0.73797967  0.81206585  1
  C  C952  1  0.55213898  0.61072798  0.91130636  1
  C  C953  1  0.86533349  0.67250870  0.86119034  1
  C  C954  1  0.96667623  0.90109600  0.89977062  1
  O  O955  1  0.64005644  0.99093585  0.93997839  1
  C  C956  1  0.59895388  0.94287503  0.75667072  1
  C  C957  1  0.60869986  0.84397225  0.82787993  1
  O  O958  1  0.79114396  0.89630050  0.82301681  1
  C  C959  1  0.90582791  0.65466936  0.92666170  1
  C  C960  1  0.95839392  0.64479376  0.95544390  1
  C  C961  1  0.92567595  0.65636203  0.89085651  1
  O  O962  1  0.88040731  0.69770747  0.83398527  1
  O  O963  1  0.58947601  0.94473312  0.86236832  1
  C  C964  1  0.82460723  0.55319683  0.79375920  1
  C  C965  1  0.57284896  0.80009623  0.80590117  1
  C  C966  1  0.90063205  0.86791534  0.87514739  1
  C  C967  1  0.93621600  0.57758362  0.75579110  1
  H  H968  1  0.97163013  0.54658010  0.77278101  1
  O  O969  1  0.60234410  0.61947935  0.85176624  1
  O  O970  1  0.85424795  0.50749338  0.80746741  1
  H  H971  1  0.61777678  0.56278050  0.95290318  1
  H  H972  1  0.80351796  0.55705482  0.96712496  1
  O  O973  1  0.72672168  0.79485177  0.99057831  1
  Zn  Zn974  1  0.99575171  0.82080249  0.87142622  1
  H  H975  1  0.89873056  0.95363626  0.98908018  1
  O  O976  1  0.96642951  0.51531195  0.99582481  1
  O  O977  1  0.66616996  0.96410226  0.75822351  1
  C  C978  1  0.51514156  0.60043823  0.97508429  1
  H  H979  1  0.51050735  0.97024571  0.92753815  1
  C  C980  1  0.99076857  0.85959179  0.82043049  1
  O  O981  1  0.83503649  0.98260085  0.75147887  1
  H  H982  1  0.99799179  0.85636656  0.79060186  1
  H  H983  1  0.98956334  0.51708994  0.92147707  1
  C  C984  1  0.91845474  0.99898381  0.97678994  1
  H  H985  1  0.62061434  0.90690478  0.99574479  1
  C  C986  1  0.90860924  0.98473191  0.75282707  1
  O  O987  1  0.94928859  0.93969222  0.75269219  1
