# generated using pymatgen
data_Cu3H40C50(N4O3)2
_symmetry_space_group_name_H-M   'P 1'
_cell_length_a   47.01170815
_cell_length_b   16.14493037
_cell_length_c   18.05416756
_cell_angle_alpha   90.00000000
_cell_angle_beta   90.00000000
_cell_angle_gamma   90.00000000
_symmetry_Int_Tables_number   1
_chemical_formula_structural   Cu3H40C50(N4O3)2
_chemical_formula_sum   'Cu24 H320 C400 N64 O48'
_cell_volume   13703.12680616
_cell_formula_units_Z   8
loop_
 _symmetry_equiv_pos_site_id
 _symmetry_equiv_pos_as_xyz
  1  'x, y, z'
loop_
 _atom_site_type_symbol
 _atom_site_label
 _atom_site_symmetry_multiplicity
 _atom_site_fract_x
 _atom_site_fract_y
 _atom_site_fract_z
 _atom_site_occupancy
  H  H0  1  0.07875252  0.11604948  0.09829132  1
  H  H1  1  0.09920281  0.11487381  0.39079004  1
  N  N2  1  0.11547038  0.08826698  0.28945019  1
  C  C3  1  0.11058157  0.06463093  0.35816752  1
  H  H4  1  0.05396067  0.17013237  0.30984338  1
  C  C5  1  0.05292779  0.18926710  0.43178429  1
  C  C6  1  0.13170043  0.04327771  0.24769396  1
  H  H7  1  0.13280788  0.07142917  0.19312919  1
  H  H8  1  0.03691880  0.14362160  0.44595808  1
  C  C9  1  0.08380943  0.20795499  0.01899383  1
  C  C10  1  0.08094237  0.12556635  0.04074950  1
  C  C11  1  0.06225417  0.20268135  0.35903368  1
  C  C12  1  0.16647098  0.05842953  0.05663784  1
  C  C13  1  0.15830762  0.20690195  0.44118495  1
  H  H14  1  0.13704287  0.18242041  0.42614394  1
  C  C15  1  0.06608637  0.23017225  0.49007527  1
  H  H16  1  0.24977881  0.01310610  0.09484202  1
  H  H17  1  0.18906767  0.10352891  0.16143530  1
  C  C18  1  0.17840402  0.24453234  0.39579157  1
  C  C19  1  0.18097134  0.11719917  0.10301438  1
  H  H20  1  0.22196314  0.09563029  0.31918020  1
  C  C21  1  0.22962034  0.18355630  0.23005696  1
  C  C22  1  0.22773520  0.10526326  0.26162653  1
  C  C23  1  0.23607442  0.04043592  0.21067886  1
  C  C24  1  0.18323082  0.19571999  0.06896355  1
  C  C25  1  0.24248705  0.06062775  0.13620077  1
  N  N26  1  0.23741546  0.20364150  0.16166925  1
  C  C27  1  0.26002855  0.02586971  0.46132146  1
  H  H28  1  0.25282398  0.18883251  0.38700080  1
  H  H29  1  0.26811275  0.03601238  0.30007001  1
  C  C30  1  0.24156980  0.14334060  0.11343265  1
  H  H31  1  0.24484354  0.16618816  0.05620088  1
  C  C32  1  0.30403954  0.06695875  0.04675791  1
  C  C33  1  0.31134289  0.08220818  0.26836212  1
  C  C34  1  0.30665647  0.13430295  0.20835630  1
  H  H35  1  0.28602645  0.14627220  0.18207356  1
  C  C36  1  0.32904809  0.19242558  0.19592071  1
  H  H37  1  0.30366074  0.13058807  0.40455456  1
  H  H38  1  0.31685320  0.11439674  0.07726413  1
  C  C39  1  0.31234916  0.10007271  0.45593665  1
  H  H40  1  0.26127216  0.09510747  0.46025229  1
  C  C41  1  0.28898472  0.01402633  0.27733296  1
  H  H42  1  0.22716142  0.24558495  0.25965710  1
  H  H43  1  0.29380600  0.24136759  0.30552156  1
  H  H44  1  0.19704194  0.24887300  0.09217323  1
  O  O45  1  0.31265534  0.01616716  0.44979447  1
  H  H46  1  0.18939281  0.03410759  0.44358944  1
  C  C47  1  0.20987052  0.05769197  0.46486158  1
  H  H48  1  0.21584665  0.11880227  0.43855923  1
  N  N49  1  0.17100538  0.21780499  0.00452116  1
  H  H50  1  0.29533795  0.11321903  0.49974031  1
  H  H51  1  0.40101496  0.09653124  0.04519381  1
  C  C52  1  0.35476742  0.00739729  0.14371613  1
  Cu  Cu53  1  0.38403767  0.24049195  0.41494197  1
  N  N54  1  0.46986329  0.12329894  0.47123587  1
  H  H55  1  0.35878264  0.06804871  0.12122187  1
  H  H56  1  0.46579500  0.07854120  0.04253667  1
  C  C57  1  0.33722296  0.15099042  0.47063287  1
  C  C58  1  0.35426510  0.13731468  0.00098337  1
  C  C59  1  0.33764522  0.07972725  0.30527162  1
  C  C60  1  0.36209609  0.12675275  0.28581784  1
  Cu  Cu61  1  0.42815603  0.17299902  0.46883284  1
  C  C62  1  0.35518886  0.18790353  0.23358924  1
  H  H63  1  0.39399779  0.00367378  0.21879114  1
  C  C64  1  0.46938162  0.14674401  0.03017603  1
  H  H65  1  0.35177049  0.00299588  0.02358929  1
  C  C66  1  0.41254411  0.01242677  0.41935566  1
  C  C67  1  0.38903195  0.04058501  0.36733923  1
  H  H68  1  0.44231782  0.10704275  0.27167702  1
  H  H69  1  0.33987248  0.02910321  0.34725077  1
  O  O70  1  0.38886903  0.10722178  0.32096608  1
  O  O71  1  0.41608302  0.05694722  0.47393099  1
  C  C72  1  0.49033110  0.15633072  0.42864563  1
  H  H73  1  0.42398590  0.11246863  0.13988920  1
  C  C74  1  0.44188678  0.05566496  0.23397899  1
  H  H75  1  0.37218187  0.23574499  0.22404107  1
  O  O76  1  0.34709957  0.20247234  0.42739315  1
  C  C77  1  0.43150100  0.05487744  0.16259774  1
  H  H78  1  0.36975033  0.05038302  0.40240521  1
  H  H79  1  0.47499839  0.15845371  0.17021370  1
  C  C80  1  0.46171807  0.20898186  0.15428000  1
  H  H81  1  0.35210764  0.16906033  0.05589793  1
  H  H82  1  0.49315808  0.15230920  0.03644851  1
  C  C83  1  0.45399866  0.21348758  0.07900872  1
  H  H84  1  0.47892829  0.19819673  0.38741045  1
  C  C85  1  0.41309249  0.05677030  0.00612303  1
  C  C86  1  0.08690583  0.08427852  0.91507576  1
  H  H87  1  0.07737468  0.10910729  0.53937842  1
  C  C88  1  0.04033347  0.15256488  0.60012815  1
  H  H89  1  0.02704989  0.11231369  0.56555897  1
  C  C90  1  0.08974044  0.05211393  0.55057503  1
  H  H91  1  0.08741842  0.03920777  0.87062828  1
  H  H92  1  0.10548372  0.11499641  0.71230141  1
  C  C93  1  0.11244172  0.05831464  0.74711405  1
  H  H94  1  0.13274605  0.11264499  0.56168655  1
  N  N95  1  0.13659076  0.06943981  0.78829402  1
  C  C96  1  0.04195229  0.13839376  0.67798032  1
  C  C97  1  0.08166002  0.05940843  0.98838296  1
  C  C98  1  0.11976242  0.05593611  0.55477824  1
  H  H99  1  0.03283635  0.09071987  0.71263387  1
  H  H100  1  0.13449316  0.03478926  0.96954599  1
  H  H101  1  0.14295533  0.19226669  0.92415566  1
  C  C102  1  0.15142203  0.00576010  0.81906965  1
  C  C103  1  0.09052606  0.17041859  0.90024384  1
  C  C104  1  0.05773119  0.21773333  0.57252147  1
  H  H105  1  0.09146371  0.20161686  0.84421255  1
  N  N106  1  0.05801710  0.17526333  0.72585056  1
  H  H107  1  0.15341453  0.22392278  0.77669893  1
  C  C108  1  0.15330843  0.16371780  0.97250029  1
  N  N109  1  0.16149695  0.17462573  0.51075878  1
  N  N110  1  0.09058931  0.23037814  0.95015768  1
  C  C111  1  0.07310484  0.23786637  0.70301530  1
  C  C112  1  0.14963551  0.08034590  0.99606558  1
  O  O113  1  0.25665599  0.01008251  0.81010196  1
  H  H114  1  0.20597671  0.07662928  0.52500329  1
  H  H115  1  0.17160646  0.02078995  0.84466744  1
  C  C116  1  0.18514078  0.19890197  0.53924789  1
  H  H117  1  0.19730452  0.13591767  0.70548761  1
  H  H118  1  0.23865929  0.18520016  0.73679402  1
  Cu  Cu119  1  0.23499273  0.06051440  0.88233193  1
  H  H120  1  0.27882575  0.16402596  0.63623019  1
  N  N121  1  0.30961963  0.21658149  0.69872164  1
  C  C122  1  0.28305550  0.18529944  0.69357334  1
  C  C123  1  0.26219915  0.19549838  0.74713817  1
  C  C124  1  0.27150566  0.22622410  0.81706262  1
  N  N125  1  0.26626686  0.03531376  0.96077298  1
  O  O126  1  0.20591982  0.17928390  0.82430228  1
  H  H127  1  0.18578160  0.17096221  0.59636315  1
  N  N128  1  0.22851625  0.07456213  0.65524405  1
  C  C129  1  0.20282043  0.07259593  0.68669479  1
  C  C130  1  0.22062095  0.22110620  0.86547713  1
  C  C131  1  0.20798455  0.24383013  0.50837439  1
  H  H132  1  0.20228162  0.23591124  0.90945806  1
  C  C133  1  0.25068222  0.24545578  0.87454015  1
  H  H134  1  0.27774529  0.15329220  0.97598715  1
  H  H135  1  0.25395933  0.01784931  0.75715904  1
  C  C136  1  0.28228712  0.08976861  0.99581047  1
  H  H137  1  0.25883703  0.03098861  0.58717317  1
  C  C138  1  0.31839608  0.24386619  0.76441934  1
  C  C139  1  0.30106390  0.24629626  0.82605410  1
  C  C140  1  0.24011365  0.01057047  0.61787137  1
  O  O141  1  0.36744941  0.18089402  0.68200932  1
  N  N142  1  0.45900662  0.03946123  0.71196767  1
  C  C143  1  0.44704929  0.19166520  0.82507157  1
  C  C144  1  0.49599708  0.18788279  0.89007408  1
  C  C145  1  0.47995147  0.07340277  0.52579720  1
  C  C146  1  0.46807098  0.22967509  0.87081125  1
  H  H147  1  0.45024151  0.12876982  0.80487948  1
  N  N148  1  0.35709133  0.19821243  0.95256881  1
  H  H149  1  0.48602605  0.06767225  0.83678875  1
  C  C150  1  0.41412542  0.07256708  0.92917788  1
  C  C151  1  0.35828100  0.17996222  0.88126083  1
  N  N152  1  0.42614605  0.02114967  0.88242995  1
  C  C153  1  0.39084838  0.15498446  0.66621684  1
  H  H154  1  0.35602491  0.08337317  0.79201798  1
  O  O155  1  0.38034098  0.00579701  0.71226929  1
  C  C156  1  0.35340746  0.05272886  0.98180905  1
  C  C157  1  0.48110964  0.08744126  0.69344829  1
  O  O158  1  0.40951958  0.19731395  0.63494999  1
  H  H159  1  0.47571791  0.15284193  0.68377363  1
  H  H160  1  0.46322992  0.15047806  0.96944175  1
  C  C161  1  0.35514177  0.03158978  0.90617070  1
  O  O162  1  0.34709943  0.13543702  0.53429288  1
  H  H163  1  0.46023747  0.05353072  0.55695524  1
  C  C164  1  0.39769575  0.06427569  0.67941903  1
  Cu  Cu165  1  0.33873371  0.20189922  0.61230557  1
  H  H166  1  0.40622961  0.12484320  0.89442325  1
  C  C167  1  0.35630018  0.09720767  0.85499572  1
  H  H168  1  0.39507114  0.04852805  0.62002566  1
  H  H169  1  0.42135505  0.06000408  0.69475911  1
  C  C170  1  0.42480209  0.24016816  0.80157521  1
  H  H171  1  0.36193706  0.23704549  0.84605063  1
  H  H172  1  0.40573017  0.22275225  0.76590595  1
  H  H173  1  0.04573813  0.37371936  0.43852657  1
  C  C174  1  0.09240318  0.29943399  0.39787062  1
  C  C175  1  0.10967072  0.33991329  0.21500420  1
  H  H176  1  0.10724554  0.34235598  0.37158416  1
  C  C177  1  0.12472744  0.41335846  0.22924873  1
  C  C178  1  0.12813173  0.32348860  0.09761202  1
  C  C179  1  0.05532988  0.45757548  0.34967158  1
  H  H180  1  0.05587321  0.41158834  0.30147473  1
  C  C181  1  0.04959957  0.43906303  0.42339700  1
  N  N182  1  0.13510851  0.47085882  0.43628007  1
  H  H183  1  0.12129772  0.44861472  0.27690508  1
  C  C184  1  0.14738286  0.38958663  0.10920874  1
  C  C185  1  0.14670067  0.42995376  0.17806498  1
  C  C186  1  0.14969722  0.40412134  0.45769034  1
  H  H187  1  0.09763828  0.45137866  0.10242622  1
  N  N188  1  0.11129677  0.29458511  0.15042838  1
  H  H189  1  0.09553371  0.30125665  0.24995400  1
  H  H190  1  0.08128531  0.26632590  0.04976709  1
  H  H191  1  0.12616152  0.28415300  0.04807162  1
  H  H192  1  0.16593001  0.38162873  0.41689126  1
  C  C193  1  0.08499520  0.48215023  0.05889003  1
  C  C194  1  0.08740952  0.29038304  0.47220022  1
  H  H195  1  0.16372791  0.40693672  0.06644669  1
  H  H196  1  0.16269685  0.46462762  0.31815502  1
  N  N197  1  0.08054791  0.26181956  0.34019435  1
  C  C198  1  0.20480802  0.26314196  0.43379248  1
  C  C199  1  0.32686056  0.25715055  0.13757849  1
  H  H200  1  0.20480674  0.37453402  0.05119874  1
  H  H201  1  0.21299626  0.42726329  0.37712672  1
  C  C202  1  0.23051923  0.38462406  0.36317344  1
  C  C203  1  0.22386932  0.37572383  0.08560553  1
  O  O204  1  0.22647452  0.40967137  0.14684405  1
  N  N205  1  0.24443743  0.33955812  0.05111754  1
  H  H206  1  0.25861040  0.47253195  0.29892031  1
  C  C207  1  0.25355744  0.40816253  0.31905889  1
  Cu  Cu208  1  0.30897134  0.39516000  0.23101529  1
  N  N209  1  0.27437604  0.35514986  0.29633394  1
  Cu  Cu210  1  0.27370009  0.32673374  0.14207982  1
  H  H211  1  0.30918951  0.41312187  0.39589194  1
  O  O212  1  0.28700663  0.43470556  0.15029184  1
  Cu  Cu213  1  0.30017564  0.43582050  0.05335069  1
  C  C214  1  0.32212853  0.46117552  0.42027677  1
  H  H215  1  0.26924037  0.40504630  0.46236187  1
  C  C216  1  0.25255516  0.25026960  0.36733853  1
  C  C217  1  0.27528382  0.27791887  0.32198204  1
  O  O218  1  0.30283402  0.26505008  0.10538504  1
  C  C219  1  0.22949789  0.30081344  0.38824006  1
  H  H220  1  0.17504796  0.26064556  0.33525893  1
  H  H221  1  0.49726994  0.26191218  0.09064547  1
  H  H222  1  0.49622531  0.48094344  0.38426400  1
  C  C223  1  0.49225943  0.48099926  0.32481303  1
  O  O224  1  0.33576433  0.36965520  0.30370389  1
  C  C225  1  0.43729858  0.33092773  0.17964963  1
  H  H226  1  0.43028646  0.38100558  0.21722637  1
  Cu  Cu227  1  0.35496030  0.39187428  0.05660593  1
  H  H228  1  0.42452814  0.31691376  0.30029707  1
  O  O229  1  0.33608428  0.47784708  0.09666958  1
  Cu  Cu230  1  0.33971211  0.31778241  0.43805514  1
  H  H231  1  0.46709472  0.48204263  0.12773049  1
  C  C232  1  0.44682369  0.31696496  0.32384487  1
  O  O233  1  0.37332544  0.44369493  0.27252129  1
  H  H234  1  0.45826608  0.37247381  0.29768638  1
  C  C235  1  0.47698214  0.47886644  0.18402047  1
  C  C236  1  0.48995252  0.40481875  0.02675932  1
  O  O237  1  0.44848677  0.27504295  0.45170428  1
  O  O238  1  0.34750222  0.29804747  0.11834747  1
  O  O239  1  0.37541761  0.31711708  0.48550570  1
  C  C240  1  0.35438303  0.42544701  0.31736208  1
  H  H241  1  0.47920586  0.34645258  0.03174793  1
  C  C242  1  0.34716653  0.47657053  0.38211666  1
  C  C243  1  0.45219877  0.26324064  0.20668951  1
  C  C244  1  0.43682479  0.27535351  0.05220345  1
  O  O245  1  0.45801014  0.25238496  0.28545399  1
  C  C246  1  0.40698452  0.39872364  0.08722059  1
  C  C247  1  0.42840648  0.33513728  0.10500108  1
  Cu  Cu248  1  0.36867892  0.48836754  0.17585942  1
  C  C249  1  0.44190131  0.32969532  0.40289459  1
  O  O250  1  0.40350720  0.46212358  0.12678620  1
  O  O251  1  0.43057686  0.39659584  0.42020310  1
  O  O252  1  0.39149882  0.39192501  0.03055544  1
  Cu  Cu253  1  0.39156328  0.40763737  0.43888417  1
  H  H254  1  0.08317600  0.37309152  0.97721306  1
  C  C255  1  0.10894757  0.41306279  0.71678821  1
  C  C256  1  0.10949111  0.38071418  0.78898238  1
  N  N257  1  0.12320263  0.31192724  0.80936991  1
  C  C258  1  0.12638195  0.37586770  0.66114349  1
  C  C259  1  0.12740043  0.40670313  0.57934953  1
  C  C260  1  0.03535503  0.41410482  0.66947829  1
  H  H261  1  0.02606972  0.37164442  0.70843142  1
  C  C262  1  0.14024152  0.27874400  0.75718260  1
  H  H263  1  0.09777932  0.40146462  0.83837845  1
  C  C264  1  0.14192460  0.30597500  0.68340806  1
  C  C265  1  0.07834568  0.43951857  0.99272081  1
  C  C266  1  0.03659433  0.40128464  0.59417147  1
  H  H267  1  0.02756857  0.34399788  0.56556387  1
  C  C268  1  0.04495272  0.49879764  0.68637126  1
  C  C269  1  0.04616791  0.47768586  0.55648191  1
  C  C270  1  0.14703826  0.36989542  0.52784629  1
  C  C271  1  0.10982250  0.46933851  0.55214748  1
  H  H272  1  0.09394000  0.46456740  0.70538280  1
  H  H273  1  0.16123092  0.31803651  0.54318417  1
  H  H274  1  0.08522409  0.27107333  0.74628034  1
  N  N275  1  0.06232401  0.47290446  0.94169415  1
  H  H276  1  0.08543775  0.31589161  0.61659726  1
  C  C277  1  0.07296898  0.25865698  0.62773119  1
  H  H278  1  0.16233184  0.35198000  0.88327616  1
  H  H279  1  0.09284189  0.49813521  0.58530335  1
  H  H280  1  0.15407927  0.27304795  0.64156441  1
  H  H281  1  0.09875034  0.32655069  0.51617915  1
  H  H282  1  0.17724559  0.36108674  0.74563271  1
  C  C283  1  0.17769521  0.39655135  0.86058575  1
  C  C284  1  0.18760678  0.40322611  0.78543117  1
  H  H285  1  0.17789375  0.40822244  0.64120039  1
  C  C286  1  0.19559163  0.45178029  0.63298303  1
  H  H287  1  0.21402983  0.32445523  0.96606127  1
  H  H288  1  0.25905925  0.41718709  0.66522319  1
  H  H289  1  0.28440764  0.34058455  0.66182961  1
  H  H290  1  0.26534122  0.34569930  0.74207879  1
  H  H291  1  0.28730464  0.39368643  0.83782902  1
  C  C292  1  0.28946807  0.32107037  0.52955181  1
  C  C293  1  0.27577753  0.38682127  0.70144803  1
  H  H294  1  0.25879029  0.41794855  0.55693355  1
  O  O295  1  0.31998362  0.31502972  0.52446959  1
  C  C296  1  0.29966432  0.44173277  0.80533662  1
  O  O297  1  0.31474313  0.43808715  0.95933390  1
  C  C298  1  0.29820918  0.44905180  0.73076197  1
  C  C299  1  0.27668810  0.40660721  0.51999342  1
  N  N300  1  0.18673929  0.43043228  0.92774750  1
  C  C301  1  0.25968069  0.28950000  0.93826387  1
  H  H302  1  0.28160124  0.30495848  0.94559741  1
  C  C303  1  0.20620091  0.46655886  0.76647907  1
  H  H304  1  0.18500567  0.48712864  0.51397972  1
  H  H305  1  0.31019190  0.25890488  0.88062514  1
  C  C306  1  0.23674677  0.31840017  0.98348626  1
  C  C307  1  0.21308451  0.48515779  0.68754119  1
  C  C308  1  0.20335558  0.47692013  0.89891168  1
  O  O309  1  0.27710847  0.25770069  0.53408864  1
  C  C310  1  0.19874115  0.49853210  0.56620914  1
  O  O311  1  0.29071490  0.48664504  0.52792948  1
  H  H312  1  0.22724691  0.25949623  0.53866592  1
  H  H313  1  0.24981184  0.45814002  0.99790664  1
  C  C314  1  0.49369918  0.27745747  0.58925889  1
  H  H315  1  0.34165164  0.26165863  0.75832688  1
  C  C316  1  0.38620274  0.49274441  0.58313254  1
  H  H317  1  0.43325785  0.42577092  0.86502080  1
  C  C318  1  0.42877530  0.43138939  0.57970754  1
  H  H319  1  0.37680060  0.49449531  0.80245830  1
  H  H320  1  0.46108204  0.32352820  0.74255260  1
  Cu  Cu321  1  0.35461995  0.35439715  0.57398905  1
  H  H322  1  0.47967847  0.34842714  0.91102186  1
  N  N323  1  0.41970631  0.32211947  0.81564531  1
  H  H324  1  0.44152579  0.39385066  0.54366324  1
  H  H325  1  0.48062058  0.44103611  0.82703625  1
  C  C326  1  0.47915169  0.30003254  0.70755159  1
  N  N327  1  0.40486011  0.44614839  0.54192054  1
  H  H328  1  0.42824339  0.27551474  0.99616148  1
  H  H329  1  0.48431440  0.26988699  0.53468560  1
  C  C330  1  0.43710729  0.46701987  0.64872189  1
  H  H331  1  0.45931463  0.46312221  0.67039966  1
  C  C332  1  0.46372815  0.31646426  0.88057652  1
  N  N333  1  0.47168597  0.29217994  0.63433916  1
  Cu  Cu334  1  0.39577036  0.25769768  0.55796113  1
  C  C335  1  0.43999048  0.36050275  0.85326596  1
  H  H336  1  0.36493911  0.49480640  0.55459962  1
  H  H337  1  0.45241775  0.47386983  0.97780530  1
  C  C338  1  0.47555814  0.47298650  0.99522373  1
  C  C339  1  0.07055175  0.67482788  0.16570101  1
  C  C340  1  0.08634836  0.60847513  0.13582197  1
  C  C341  1  0.07591018  0.56280216  0.06651723  1
  C  C342  1  0.11297151  0.60138440  0.17142918  1
  C  C343  1  0.12061729  0.65466865  0.22992647  1
  H  H344  1  0.06973937  0.65201848  0.34874619  1
  H  H345  1  0.14027134  0.65516365  0.26319213  1
  C  C346  1  0.05564936  0.58829068  0.45623149  1
  C  C347  1  0.06356500  0.59699907  0.38268252  1
  N  N348  1  0.10392343  0.71446190  0.25795898  1
  H  H349  1  0.10331665  0.55132858  0.45394009  1
  H  H350  1  0.05091284  0.69297294  0.13609209  1
  C  C351  1  0.07829623  0.72412867  0.22807218  1
  C  C352  1  0.09820383  0.74193139  0.47868793  1
  H  H353  1  0.05325244  0.66852635  0.01699142  1
  H  H354  1  0.11736274  0.62270817  0.02966669  1
  H  H355  1  0.06824516  0.55149534  0.27684193  1
  N  N356  1  0.06243278  0.53645503  0.33253861  1
  C  C357  1  0.05948841  0.60301756  0.01001994  1
  C  C358  1  0.16660297  0.72297784  0.36521431  1
  C  C359  1  0.16549294  0.50152832  0.20564422  1
  H  H360  1  0.12860943  0.56176350  0.14744970  1
  H  H361  1  0.11441087  0.74721683  0.43611854  1
  C  C362  1  0.04810633  0.50452279  0.47760550  1
  C  C363  1  0.11477009  0.50057711  0.48028115  1
  H  H364  1  0.05561651  0.64024549  0.49521573  1
  Cu  Cu365  1  0.25096498  0.50066440  0.16717535  1
  H  H366  1  0.16769482  0.65927110  0.33837089  1
  H  H367  1  0.17718117  0.56832797  0.10217455  1
  N  N368  1  0.17265328  0.71302599  0.43703357  1
  Cu  Cu369  1  0.31064348  0.52822141  0.15794240  1
  H  H370  1  0.21187747  0.66292743  0.16352818  1
  C  C371  1  0.19984846  0.61350499  0.19713359  1
  C  C372  1  0.17921494  0.56581189  0.16358504  1
  C  C373  1  0.19518082  0.55440798  0.31252972  1
  N  N374  1  0.20744332  0.61322282  0.26858999  1
  O  O375  1  0.19912356  0.55001693  0.38387659  1
  Cu  Cu376  1  0.21161816  0.64099177  0.43926677  1
  Cu  Cu377  1  0.24010075  0.67462503  0.31582119  1
  H  H378  1  0.24691434  0.66384432  0.11950525  1
  C  C379  1  0.25097456  0.64302688  0.06219417  1
  N  N380  1  0.25261546  0.56161977  0.06457710  1
  O  O381  1  0.26664365  0.59846969  0.20220952  1
  C  C382  1  0.31235408  0.64762488  0.21229757  1
  Cu  Cu383  1  0.28199128  0.64733708  0.39566114  1
  H  H384  1  0.29467135  0.67594193  0.10851181  1
  C  C385  1  0.28660727  0.61263299  0.24694226  1
  O  O386  1  0.28551978  0.58260348  0.31057352  1
  C  C387  1  0.31521778  0.67976904  0.14141433  1
  O  O388  1  0.27236493  0.71418799  0.47852477  1
  H  H389  1  0.32104618  0.73579784  0.00477324  1
  C  C390  1  0.17390125  0.50435421  0.28067257  1
  O  O391  1  0.22628272  0.72951090  0.48901638  1
  C  C392  1  0.31425011  0.50210798  0.48588507  1
  C  C393  1  0.46984869  0.52804041  0.29783067  1
  C  C394  1  0.33708337  0.64800848  0.25761027  1
  H  H395  1  0.33556611  0.61835191  0.31438289  1
  N  N396  1  0.46177704  0.53051028  0.22642819  1
  H  H397  1  0.39087601  0.68242929  0.44324546  1
  Cu  Cu398  1  0.33947956  0.58249214  0.05166096  1
  H  H399  1  0.45344065  0.55680701  0.33331911  1
  O  O400  1  0.49672497  0.67705669  0.40651611  1
  C  C401  1  0.34152761  0.71106531  0.11580323  1
  Cu  Cu402  1  0.46420442  0.69995464  0.47343891  1
  C  C403  1  0.37556597  0.66123561  0.48806834  1
  C  C404  1  0.41034632  0.71730785  0.27982311  1
  H  H405  1  0.38645815  0.54942236  0.37588912  1
  C  C406  1  0.36289727  0.68203568  0.23668716  1
  O  O407  1  0.46103761  0.73112762  0.29706541  1
  O  O408  1  0.38616929  0.67561608  0.29414276  1
  C  C409  1  0.43754134  0.71393593  0.32571858  1
  O  O410  1  0.43592993  0.69180696  0.39052520  1
  C  C411  1  0.48371582  0.71290290  0.08029898  1
  C  C412  1  0.36562260  0.53983994  0.40219633  1
  C  C413  1  0.36595754  0.71533280  0.16501276  1
  H  H414  1  0.46783589  0.68156783  0.04287298  1
  C  C415  1  0.35629324  0.58892609  0.46172073  1
  H  H416  1  0.41659742  0.69405058  0.22250753  1
  H  H417  1  0.09444066  0.64183282  0.88212089  1
  C  C418  1  0.05217293  0.55062425  0.95157100  1
  H  H419  1  0.03921795  0.56872815  0.90180235  1
  H  H420  1  0.05855943  0.58650034  0.76633004  1
  N  N421  1  0.15896487  0.69139562  0.67849661  1
  N  N422  1  0.12929199  0.59232560  0.93110230  1
  C  C423  1  0.13176760  0.64710095  0.98671303  1
  N  N424  1  0.05389774  0.52376547  0.75666877  1
  C  C425  1  0.14415677  0.60519970  0.86934011  1
  N  N426  1  0.06582381  0.69525764  0.81438424  1
  H  H427  1  0.05948899  0.59782859  0.60586519  1
  C  C428  1  0.05135875  0.53499978  0.61616647  1
  C  C429  1  0.09026912  0.69941435  0.84674683  1
  N  N430  1  0.08509720  0.70367404  0.60528093  1
  H  H431  1  0.12507002  0.68486469  0.56739258  1
  H  H432  1  0.04609848  0.73686365  0.64138520  1
  C  C433  1  0.05943065  0.73575646  0.59445803  1
  C  C434  1  0.10406469  0.70688386  0.54862675  1
  C  C435  1  0.15178732  0.71101860  0.98780011  1
  H  H436  1  0.03315999  0.73332397  0.75313704  1
  H  H437  1  0.14031249  0.55819588  0.82701737  1
  C  C438  1  0.16254499  0.67199257  0.86300202  1
  H  H439  1  0.05155525  0.50541720  0.80987397  1
  H  H440  1  0.17354242  0.67728529  0.81062609  1
  H  H441  1  0.30769913  0.51558443  0.62848411  1
  C  C442  1  0.31087189  0.51082112  0.68814021  1
  C  C443  1  0.18547646  0.69732927  0.65818667  1
  N  N444  1  0.20989919  0.57055784  0.53589019  1
  H  H445  1  0.19182657  0.63065245  0.65283645  1
  C  C446  1  0.22665370  0.57694596  0.59067899  1
  C  C447  1  0.23211835  0.55114285  0.66020275  1
  H  H448  1  0.24943331  0.57955005  0.69396812  1
  H  H449  1  0.27902959  0.60497366  0.78835584  1
  C  C450  1  0.32762184  0.57329617  0.72141714  1
  C  C451  1  0.26073097  0.57002245  0.93329662  1
  H  H452  1  0.26535528  0.54493910  0.87954813  1
  C  C453  1  0.26164248  0.65992381  0.93399812  1
  C  C454  1  0.27818557  0.67267875  0.79448782  1
  C  C455  1  0.26709266  0.70541757  0.86264654  1
  H  H456  1  0.29358757  0.70419570  0.68151328  1
  H  H457  1  0.32677020  0.60864417  0.54834022  1
  C  C458  1  0.28460854  0.72289335  0.73450239  1
  H  H459  1  0.22960159  0.55713095  0.83170174  1
  C  C460  1  0.31675081  0.50456507  0.84019325  1
  C  C461  1  0.16816592  0.72674070  0.92195336  1
  C  C462  1  0.33172863  0.56905683  0.50199374  1
  C  C463  1  0.32961809  0.56587832  0.79862180  1
  C  C464  1  0.21502199  0.50764898  0.83393578  1
  C  C465  1  0.32206977  0.50144142  0.92030034  1
  C  C466  1  0.25346581  0.52514344  0.99682315  1
  C  C467  1  0.25223236  0.69782626  0.99984613  1
  C  C468  1  0.49860898  0.72630612  0.62290095  1
  C  C469  1  0.44406385  0.57053777  0.80465930  1
  H  H470  1  0.39000651  0.69500114  0.62249255  1
  C  C471  1  0.41611194  0.51265578  0.68857649  1
  C  C472  1  0.48668527  0.72418028  0.76495826  1
  C  C473  1  0.39877243  0.56567970  0.88992395  1
  H  H474  1  0.46430535  0.58034492  0.77139420  1
  H  H475  1  0.34127436  0.61166081  0.83344307  1
  H  H476  1  0.38401588  0.56685133  0.93574339  1
  C  C477  1  0.39659221  0.52528598  0.82024768  1
  H  H478  1  0.36174944  0.71169136  0.50474395  1
  C  C479  1  0.44386296  0.60033138  0.87701592  1
  O  O480  1  0.33361601  0.56330076  0.94908763  1
  C  C481  1  0.49613699  0.73835781  0.83861695  1
  C  C482  1  0.38902412  0.52707306  0.65397796  1
  O  O483  1  0.33788955  0.63716820  0.68359586  1
  N  N484  1  0.42165975  0.59663709  0.92060802  1
  H  H485  1  0.46180963  0.63385139  0.90330561  1
  O  O486  1  0.43870503  0.72203041  0.55176156  1
  C  C487  1  0.35145276  0.70532838  0.73066259  1
  H  H488  1  0.36644528  0.66707438  0.76419238  1
  H  H489  1  0.33379618  0.73119471  0.76657305  1
  H  H490  1  0.37129526  0.55810375  0.68572644  1
  C  C491  1  0.41899208  0.53854476  0.76989615  1
  H  H492  1  0.44699460  0.73805340  0.69535850  1
  H  H493  1  0.38700657  0.74687233  0.88059970  1
  C  C494  1  0.45735558  0.74529069  0.75097268  1
  N  N495  1  0.48777682  0.54518563  0.98716692  1
  H  H496  1  0.38976296  0.64519356  0.53749900  1
  C  C497  1  0.06679856  0.85679390  0.09392276  1
  H  H498  1  0.05879307  0.81899963  0.14067103  1
  C  C499  1  0.06933339  0.76700712  0.46695758  1
  H  H500  1  0.11637120  0.81088819  0.13388888  1
  C  C501  1  0.13565010  0.84692287  0.12716611  1
  C  C502  1  0.13815767  0.92391978  0.09122175  1
  C  C503  1  0.06218663  0.81111785  0.39420197  1
  C  C504  1  0.03385278  0.81167333  0.37134734  1
  C  C505  1  0.14154040  0.94657706  0.34385864  1
  C  C506  1  0.15447913  0.86741235  0.37140127  1
  C  C507  1  0.08315275  0.85166425  0.34995317  1
  H  H508  1  0.10643378  0.84812564  0.35994434  1
  C  C509  1  0.02759664  0.86024033  0.30688745  1
  H  H510  1  0.15245588  0.79854586  0.27176415  1
  C  C511  1  0.15813549  0.79545698  0.32836923  1
  H  H512  1  0.11843989  0.95162310  0.06984069  1
  H  H513  1  0.00775659  0.87695514  0.28085874  1
  N  N514  1  0.04622111  0.90913763  0.27295874  1
  C  C515  1  0.07316740  0.90053459  0.29298675  1
  C  C516  1  0.16318112  0.97261192  0.09320742  1
  C  C517  1  0.06867340  0.94223476  0.08511826  1
  H  H518  1  0.04295842  0.97411480  0.41256080  1
  N  N519  1  0.07329660  0.79940112  0.04302221  1
  C  C520  1  0.15908589  0.85655550  0.44841653  1
  C  C521  1  0.14538926  0.96921416  0.26920049  1
  N  N522  1  0.15867222  0.80824222  0.15692879  1
  H  H523  1  0.15768081  0.93335258  0.23196798  1
  H  H524  1  0.06385873  0.98787835  0.13171230  1
  H  H525  1  0.11848414  0.97532425  0.44518813  1
  H  H526  1  0.08507925  0.93765834  0.25750552  1
  H  H527  1  0.15856847  0.90984576  0.48386070  1
  H  H528  1  0.06411144  0.76588135  0.26055262  1
  C  C529  1  0.07932413  0.97030966  0.01592261  1
  C  C530  1  0.16560644  0.77961544  0.47931068  1
  C  C531  1  0.12273677  0.99460783  0.38909823  1
  H  H532  1  0.01555872  0.79480474  0.40674561  1
  H  H533  1  0.15372035  0.75038744  0.03898599  1
  C  C534  1  0.00066868  0.95120599  0.46026707  1
  C  C535  1  0.03027761  0.97086775  0.46276714  1
  H  H536  1  0.17299967  0.86985265  0.01111332  1
  H  H537  1  0.33329601  0.82205362  0.04696534  1
  H  H538  1  0.19995832  0.81390808  0.18736534  1
  C  C539  1  0.18377761  0.84860856  0.15723524  1
  C  C540  1  0.18591167  0.92863183  0.12678467  1
  C  C541  1  0.21823807  0.92227372  0.29757256  1
  H  H542  1  0.20483451  0.81101070  0.36086435  1
  C  C543  1  0.21760613  0.83592406  0.31552349  1
  C  C544  1  0.23298191  0.95117130  0.23465661  1
  N  N545  1  0.23503103  0.78211116  0.28443145  1
  H  H546  1  0.20582045  0.96421777  0.33161577  1
  C  C547  1  0.24910231  0.88625870  0.19924910  1
  C  C548  1  0.25075621  0.80607263  0.22778728  1
  H  H549  1  0.26099757  0.89671620  0.14678757  1
  H  H550  1  0.30870471  0.84162531  0.15158779  1
  C  C551  1  0.28845464  0.92969134  0.03266365  1
  C  C552  1  0.30827017  0.98394263  0.06430302  1
  H  H553  1  0.29084314  0.86119128  0.04263699  1
  C  C554  1  0.28461334  0.97701276  0.45917607  1
  C  C555  1  0.25356028  0.85034541  0.47291922  1
  C  C556  1  0.28012903  0.89263322  0.46248841  1
  H  H557  1  0.26420132  0.75261125  0.21047565  1
  H  H558  1  0.20663543  0.95629650  0.13551261  1
  H  H559  1  0.30088785  0.85611192  0.46274383  1
  H  H560  1  0.28522281  0.98188562  0.22173830  1
  C  C561  1  0.25131220  0.76241811  0.47930102  1
  C  C562  1  0.32677236  0.88406880  0.16465991  1
  C  C563  1  0.33049423  0.95818449  0.12423729  1
  H  H564  1  0.20799353  0.87325710  0.48285871  1
  C  C565  1  0.22916772  0.90319836  0.47376853  1
  C  C566  1  0.23344794  0.98726156  0.46680787  1
  H  H567  1  0.24639765  0.76506480  0.00739859  1
  H  H568  1  0.29742020  0.96625260  0.31858985  1
  C  C569  1  0.42842767  0.98945697  0.03466243  1
  H  H570  1  0.40499522  0.78615076  0.27600803  1
  H  H571  1  0.49629406  0.90655332  0.08998185  1
  C  C572  1  0.44961464  0.91820108  0.15488162  1
  H  H573  1  0.45361034  0.86251074  0.12251499  1
  Cu  Cu574  1  0.46602543  0.97246157  0.38005222  1
  C  C575  1  0.37406581  0.97592360  0.19362492  1
  C  C576  1  0.49694215  0.83992026  0.10788882  1
  H  H577  1  0.47078045  0.87705941  0.25441582  1
  N  N578  1  0.48033505  0.79215911  0.06532314  1
  Cu  Cu579  1  0.47882486  0.85284771  0.48807985  1
  Cu  Cu580  1  0.48790534  0.77921800  0.36022397  1
  O  O581  1  0.42806301  0.95485433  0.40468244  1
  C  C582  1  0.34591852  0.86659084  0.22312901  1
  H  H583  1  0.34784897  0.81867765  0.26621353  1
  C  C584  1  0.45751903  0.92313149  0.22815595  1
  N  N585  1  0.36928804  0.91186718  0.23997605  1
  N  N586  1  0.45282042  0.99016692  0.27100975  1
  C  C587  1  0.43361044  0.98226196  0.11602527  1
  H  H588  1  0.38544018  0.98614444  0.33328539  1
  C  C589  1  0.33899937  0.75606899  0.04065559  1
  H  H590  1  0.38394836  0.75112743  0.14294161  1
  H  H591  1  0.35848984  0.75479015  0.00568023  1
  H  H592  1  0.46033399  0.88724187  0.00311955  1
  H  H593  1  0.05588046  0.88398704  0.73742795  1
  C  C594  1  0.06825041  0.82796587  0.75978452  1
  C  C595  1  0.09586964  0.83570975  0.79303625  1
  C  C596  1  0.09040659  0.90936082  0.96617664  1
  C  C597  1  0.12308695  0.91934238  0.57606886  1
  H  H598  1  0.13875323  0.87249589  0.58928077  1
  H  H599  1  0.14661419  0.89891689  0.69898020  1
  C  C600  1  0.09374103  0.90655391  0.56162908  1
  C  C601  1  0.11060581  0.91695995  0.78545765  1
  H  H602  1  0.15221305  0.87513396  0.83419268  1
  C  C603  1  0.15904847  0.84204742  0.68534215  1
  N  N604  1  0.13556649  0.99205255  0.57321797  1
  C  C605  1  0.08895988  0.82645651  0.98477712  1
  H  H606  1  0.09842634  0.77856810  0.95180723  1
  C  C607  1  0.10789871  0.76981862  0.83209577  1
  H  H608  1  0.13067199  0.77623926  0.85218857  1
  H  H609  1  0.10226873  0.92831259  0.91421352  1
  C  C610  1  0.13893030  0.92727220  0.81153799  1
  H  H611  1  0.08364379  0.84575030  0.56435082  1
  C  C612  1  0.07646215  0.97486652  0.54577870  1
  C  C613  1  0.04390150  0.96333796  0.53088239  1
  C  C614  1  0.02649443  0.94136566  0.59152950  1
  H  H615  1  0.07853834  0.98253545  0.71346127  1
  H  H616  1  0.03776497  0.93078524  0.64623232  1
  C  C617  1  0.05585648  0.75146951  0.76857108  1
  H  H618  1  0.02976073  0.79337635  0.51986139  1
  C  C619  1  0.05031533  0.76892278  0.52701205  1
  H  H620  1  0.16438563  0.99356668  0.70193284  1
  C  C621  1  0.09709552  0.98435658  0.74987587  1
  H  H622  1  0.12225760  0.76197428  0.70577500  1
  C  C623  1  0.14540399  0.76508170  0.68985204  1
  C  C624  1  0.20166933  0.76951157  0.64692111  1
  C  C625  1  0.19624969  0.82454388  0.83594333  1
  C  C626  1  0.20821064  0.90144996  0.82828539  1
  C  C627  1  0.20183254  0.92917432  0.65704261  1
  C  C628  1  0.18721703  0.99806255  0.68627998  1
  C  C629  1  0.18470401  0.80224092  0.90922333  1
  C  C630  1  0.22951091  0.93184803  0.62482921  1
  H  H631  1  0.24211379  0.87815542  0.59941570  1
  H  H632  1  0.19540698  0.77973990  0.79086565  1
  C  C633  1  0.18646688  0.86884606  0.96200811  1
  C  C634  1  0.18747825  0.84487851  0.65941355  1
  H  H635  1  0.24478553  0.81582378  0.90008423  1
  H  H636  1  0.25365135  0.91996268  0.94847307  1
  H  H637  1  0.26644895  0.90351342  0.78703277  1
  C  C638  1  0.26782278  0.83405532  0.79418911  1
  C  C639  1  0.25831150  0.78906426  0.85590576  1
  N  N640  1  0.28175626  0.80678276  0.73176308  1
  H  H641  1  0.30626133  0.94032821  0.90221085  1
  H  H642  1  0.30441526  0.77842888  0.88035225  1
  H  H643  1  0.21743827  0.92562330  0.77785129  1
  C  C644  1  0.32556089  0.90085317  0.89571798  1
  C  C645  1  0.32339162  0.81432100  0.88932243  1
  C  C646  1  0.20152312  0.93955316  0.94818176  1
  N  N647  1  0.21129887  0.95952702  0.88024088  1
  H  H648  1  0.20628291  0.99004583  0.98835533  1
  H  H649  1  0.17057920  0.76004131  0.53662306  1
  C  C650  1  0.26892903  0.95726645  0.98096928  1
  H  H651  1  0.22423436  0.76811446  0.62671332  1
  H  H652  1  0.47940413  0.76226781  0.61321478  1
  C  C653  1  0.38874597  0.75854265  0.64323317  1
  H  H654  1  0.45591798  0.93157670  0.86396569  1
  C  C655  1  0.44175086  0.95713582  0.90908815  1
  C  C656  1  0.44463469  0.93690257  0.98377054  1
  C  C657  1  0.46462131  0.95767106  0.72032653  1
  H  H658  1  0.49310722  0.85059358  0.72878402  1
  C  C659  1  0.37247501  0.80079565  0.88374035  1
  H  H660  1  0.39937343  0.91489135  0.89060248  1
  O  O661  1  0.44673096  0.85704760  0.54777962  1
  H  H662  1  0.42073575  0.81204036  0.79733183  1
  N  N663  1  0.44983992  0.78964590  0.87883029  1
  C  C664  1  0.37779166  0.88715349  0.88818564  1
  C  C665  1  0.40568820  0.90073286  0.64187980  1
  C  C666  1  0.49119848  0.91740880  0.72113969  1
  C  C667  1  0.38529429  0.91909377  0.69020276  1
  C  C668  1  0.35307547  0.93468796  0.89455153  1
  C  C669  1  0.36799926  0.86015321  0.72147908  1
  H  H670  1  0.44314805  0.93286795  0.73230570  1
  C  C671  1  0.36879605  0.77773905  0.69904005  1
  H  H672  1  0.42052079  0.94727389  0.61936632  1
  C  C673  1  0.44166758  0.78122845  0.80727991  1
  N  N674  1  0.34656471  0.76696402  0.88295636  1
  C  C675  1  0.40849135  0.81495402  0.61847352  1
  C  C676  1  0.47648239  0.76844312  0.89274812  1
  H  H677  1  0.48146601  0.77846720  0.95482777  1
  C  C678  1  0.43262555  0.79488215  0.56939381  1
  H  H679  1  0.35158439  0.88151567  0.76342312  1
  C  C680  1  0.51839333  0.13210697  0.42974999  1
  H  H681  1  0.52819645  0.13499606  0.13456877  1
  H  H682  1  0.57392908  0.19315419  0.44749764  1
  H  H683  1  0.53474906  0.15749215  0.39263314  1
  C  C684  1  0.58083932  0.13534554  0.47601967  1
  C  C685  1  0.52987963  0.08209623  0.48868339  1
  H  H686  1  0.62647300  0.16855167  0.47916532  1
  C  C687  1  0.53629145  0.19297040  0.11622432  1
  C  C688  1  0.56100726  0.07265898  0.49918120  1
  C  C689  1  0.60943474  0.12615091  0.49270452  1
  H  H690  1  0.60100636  0.23453130  0.09150577  1
  N  N691  1  0.56394487  0.18165125  0.11479620  1
  C  C692  1  0.57816206  0.24696903  0.08918921  1
  H  H693  1  0.58542783  0.22619974  0.26128957  1
  C  C694  1  0.59723008  0.12479980  0.67735298  1
  N  N695  1  0.60572457  0.11882016  0.74618723  1
  C  C696  1  0.57276870  0.16824176  0.65485716  1
  C  C697  1  0.56281431  0.19281908  0.78575421  1
  C  C698  1  0.58748387  0.14349202  0.80081429  1
  H  H699  1  0.59671424  0.12271717  0.85259900  1
  H  H700  1  0.52616177  0.10077442  0.68845534  1
  H  H701  1  0.57048765  0.17231522  0.59364932  1
  C  C702  1  0.55577524  0.20461974  0.71056254  1
  H  H703  1  0.61403858  0.10350773  0.63952376  1
  C  C704  1  0.52671228  0.06555773  0.88542397  1
  H  H705  1  0.53676089  0.22762390  0.57144483  1
  H  H706  1  0.56176076  0.03111338  0.76005050  1
  N  N707  1  0.54562466  0.10480302  0.92863484  1
  C  C708  1  0.54364558  0.18500039  0.94187069  1
  H  H709  1  0.54986553  0.21911727  0.82979892  1
  C  C710  1  0.50807619  0.04917434  0.53373104  1
  C  C711  1  0.50891909  0.05506593  0.69174782  1
  C  C712  1  0.52784131  0.24344837  0.68930395  1
  C  C713  1  0.50111690  0.10583380  0.87040894  1
  C  C714  1  0.52064893  0.24829940  0.61273224  1
  H  H715  1  0.53225880  0.00042829  0.87436547  1
  C  C716  1  0.57332180  0.00760063  0.54201979  1
  C  C717  1  0.51798893  0.22828169  0.92814923  1
  H  H718  1  0.56346628  0.20314410  0.96988047  1
  H  H719  1  0.51443859  0.00539435  0.57986236  1
  N  N720  1  0.61978151  0.05574160  0.51522755  1
  N  N721  1  0.57768590  0.27851618  0.35867531  1
  C  C722  1  0.56369447  0.33032612  0.40100255  1
  C  C723  1  0.53483607  0.37733579  0.30190199  1
  C  C724  1  0.50924269  0.43049522  0.27845183  1
  H  H725  1  0.57948841  0.37838185  0.05989552  1
  C  C726  1  0.55069134  0.32374078  0.25356778  1
  C  C727  1  0.56585330  0.32301647  0.07244407  1
  H  H728  1  0.54532644  0.31609221  0.19459838  1
  H  H729  1  0.55573175  0.49394859  0.03919543  1
  H  H730  1  0.52672848  0.41425617  0.41695066  1
  C  C731  1  0.53608914  0.33240884  0.07028230  1
  C  C732  1  0.50037270  0.43168255  0.20403166  1
  C  C733  1  0.53228978  0.48271173  0.02637904  1
  C  C734  1  0.51917826  0.40671196  0.04475415  1
  C  C735  1  0.54020550  0.37973307  0.37697971  1
  C  C736  1  0.57269648  0.27733040  0.28627015  1
  C  C737  1  0.52104523  0.26269576  0.09386640  1
  H  H738  1  0.57221579  0.33453220  0.45570500  1
  H  H739  1  0.51049638  0.39070469  0.16330566  1
  H  H740  1  0.56151350  0.34585567  0.95119218  1
  O  O741  1  0.51867531  0.43723807  0.53657204  1
  H  H742  1  0.52247132  0.42498922  0.91620659  1
  C  C743  1  0.59792838  0.32569733  0.71803294  1
  H  H744  1  0.57797504  0.33255175  0.75316509  1
  C  C745  1  0.54032984  0.46917634  0.52064547  1
  C  C746  1  0.56977652  0.39391902  0.61103235  1
  C  C747  1  0.62135714  0.47664470  0.56502170  1
  C  C748  1  0.59508804  0.38776067  0.65149609  1
  C  C749  1  0.58224810  0.41939725  0.86477067  1
  C  C750  1  0.56967904  0.45368268  0.55558980  1
  C  C751  1  0.62084021  0.42682459  0.62903860  1
  C  C752  1  0.60697285  0.32425875  0.94651366  1
  H  H753  1  0.55068675  0.35543040  0.62891687  1
  N  N754  1  0.63274501  0.34033923  0.91789683  1
  C  C755  1  0.58137398  0.36025015  0.92386408  1
  C  C756  1  0.55466583  0.44887507  0.83395082  1
  H  H757  1  0.64105717  0.41567818  0.65599389  1
  C  C758  1  0.53087661  0.49490925  0.71589044  1
  C  C759  1  0.63280440  0.40231238  0.86958860  1
  C  C760  1  0.50678160  0.28045506  0.73398830  1
  H  H761  1  0.61688275  0.34396016  0.74900542  1
  C  C762  1  0.52649645  0.43657151  0.85828783  1
  H  H763  1  0.60951660  0.27070439  0.98646616  1
  H  H764  1  0.60100386  0.25845121  0.70335946  1
  C  C765  1  0.59577696  0.48705239  0.52994022  1
  H  H766  1  0.51202824  0.28149775  0.79236723  1
  H  H767  1  0.51588999  0.29139972  0.94251479  1
  H  H768  1  0.65593338  0.41067516  0.86052834  1
  C  C769  1  0.60875422  0.44633839  0.83913618  1
  N  N770  1  0.50488126  0.48404418  0.74407465  1
  C  C771  1  0.55486744  0.48683561  0.76265802  1
  C  C772  1  0.50355525  0.44950555  0.81225306  1
  H  H773  1  0.61059373  0.48645218  0.79081164  1
  H  H774  1  0.61094741  0.45889421  0.98829951  1
  H  H775  1  0.51281095  0.64372175  0.39965209  1
  N  N776  1  0.59543096  0.50948849  0.08322004  1
  N  N777  1  0.56176773  0.64560094  0.37888650  1
  H  H778  1  0.64876882  0.60261268  0.46068836  1
  H  H779  1  0.58341381  0.56171057  0.17213736  1
  C  C780  1  0.57334429  0.65206500  0.08263002  1
  C  C781  1  0.56390848  0.72249025  0.35151497  1
  C  C782  1  0.57537563  0.65520360  0.00369630  1
  C  C783  1  0.55363493  0.58516114  0.33227782  1
  H  H784  1  0.56034865  0.69267722  0.11772392  1
  C  C785  1  0.53381598  0.68786067  0.24456326  1
  C  C786  1  0.58232987  0.57638614  0.11221599  1
  C  C787  1  0.53845778  0.60516870  0.26837439  1
  H  H788  1  0.50919235  0.61209121  0.13379373  1
  H  H789  1  0.55411038  0.52060821  0.35687404  1
  H  H790  1  0.52868969  0.55215585  0.23748195  1
  O  O791  1  0.54060144  0.53496700  0.47582379  1
  C  C792  1  0.50387407  0.67909881  0.12911469  1
  Cu  Cu793  1  0.56847868  0.62024787  0.49012954  1
  C  C794  1  0.54987240  0.74553977  0.28686392  1
  O  O795  1  0.59973622  0.68912921  0.49128635  1
  H  H796  1  0.59717232  0.52537115  0.47988099  1
  C  C797  1  0.59942781  0.51391673  0.01114905  1
  C  C798  1  0.51598541  0.72833388  0.18601743  1
  C  C799  1  0.61882848  0.66977037  0.54024074  1
  C  C800  1  0.55070268  0.66170840  0.64696360  1
  H  H801  1  0.57141306  0.63197729  0.65549658  1
  N  N802  1  0.54212236  0.66943354  0.57472106  1
  C  C803  1  0.53191091  0.66843028  0.70589188  1
  H  H804  1  0.59447418  0.58989911  0.91215341  1
  O  O805  1  0.61794110  0.70270253  0.60048150  1
  C  C806  1  0.59107447  0.58838030  0.97311065  1
  C  C807  1  0.51730982  0.71006037  0.56257241  1
  H  H808  1  0.66275454  0.63278312  0.55146815  1
  H  H809  1  0.53090833  0.51318866  0.65599266  1
  H  H810  1  0.58504246  0.70814994  0.85154718  1
  H  H811  1  0.53911870  0.64966528  0.76212913  1
  C  C812  1  0.50410260  0.70106262  0.69569491  1
  O  O813  1  0.64736943  0.52259533  0.54348355  1
  H  H814  1  0.51985659  0.61918164  0.99157360  1
  C  C815  1  0.64334503  0.60512811  0.52286966  1
  H  H816  1  0.51559369  0.73115343  0.50210360  1
  H  H817  1  0.51864595  0.73085825  0.85042994  1
  C  C818  1  0.56459883  0.72623036  0.95756202  1
  C  C819  1  0.57145944  0.74722102  0.88414162  1
  H  H820  1  0.57579501  0.50294170  0.73524931  1
  C  C821  1  0.51565840  0.54869487  0.99963072  1
  C  C822  1  0.52057453  0.91539264  0.38101945  1
  H  H823  1  0.56104340  0.89347292  0.41660964  1
  C  C824  1  0.54602126  0.93025225  0.38237726  1
  H  H825  1  0.55100661  0.81101842  0.27364236  1
  O  O826  1  0.50987847  0.84169168  0.42396130  1
  C  C827  1  0.51491991  0.81132101  0.16374604  1
  H  H828  1  0.52944059  0.85520140  0.18977691  1
  H  H829  1  0.53689177  0.75949427  0.04804661  1
  O  O830  1  0.50164898  0.96340228  0.35076341  1
  H  H831  1  0.55683990  0.98385653  0.35211939  1
  H  H832  1  0.57408573  0.76268461  0.39351036  1
  H  H833  1  0.98644725  0.95905348  0.41365692  1
  C  C834  1  0.55025552  0.85105860  0.66450236  1
  C  C835  1  0.57806545  0.82103408  0.67157009  1
  C  C836  1  0.55841550  0.81674751  0.85077230  1
  N  N837  1  0.59856912  0.85951353  0.70886962  1
  C  C838  1  0.54397588  0.93116039  0.69313277  1
  H  H839  1  0.53356419  0.81080171  0.64279429  1
  H  H840  1  0.61244369  0.95720135  0.76861689  1
  H  H841  1  0.56325718  0.83696996  0.79365052  1
  H  H842  1  0.58679994  0.76209725  0.65034929  1
  H  H843  1  0.61499826  0.94013952  0.55441136  1
  C  C844  1  0.56691337  0.97099547  0.72974864  1
  N  N845  1  0.53851053  0.86096138  0.88415151  1
  C  C846  1  0.59323832  0.93307409  0.74095961  1
  C  C847  1  0.51493481  0.97000374  0.70147985  1
  C  C848  1  0.53150363  0.84109020  0.95462063  1
  H  H849  1  0.51434685  0.87967484  0.97565242  1
  C  C850  1  0.54278922  0.77285726  0.99066731  1
  H  H851  1  0.56050081  0.96196526  0.57086640  1
  C  C852  1  0.60301429  0.99470072  0.53545358  1
  C  C853  1  0.99813913  0.92222110  0.58390499  1
  N  N854  1  0.98485479  0.93119044  0.51958650  1
  H  H855  1  0.98443811  0.89842027  0.62926217  1
