# generated using pymatgen
data_Zn7H144(C72O13)3
_symmetry_space_group_name_H-M   'P 1'
_cell_length_a   30.15353507
_cell_length_b   22.56039289
_cell_length_c   76.65737343
_cell_angle_alpha   90.00000000
_cell_angle_beta   90.00000000
_cell_angle_gamma   90.00000000
_symmetry_Int_Tables_number   1
_chemical_formula_structural   Zn7H144(C72O13)3
_chemical_formula_sum   'Zn84 H1728 C2592 O468'
_cell_volume   52148.14057101
_cell_formula_units_Z   12
loop_
 _symmetry_equiv_pos_site_id
 _symmetry_equiv_pos_as_xyz
  1  'x, y, z'
loop_
 _atom_site_type_symbol
 _atom_site_label
 _atom_site_symmetry_multiplicity
 _atom_site_fract_x
 _atom_site_fract_y
 _atom_site_fract_z
 _atom_site_occupancy
  C  C0  1  0.07200652  0.10638492  0.05007036  1
  O  O1  1  0.10140582  0.07182878  0.04997734  1
  C  C2  1  0.18784475  0.12237812  0.06541219  1
  C  C3  1  0.19217234  0.12556774  0.03033209  1
  C  C4  1  0.19630351  0.15223985  0.04913989  1
  C  C5  1  0.12262127  0.41887857  0.04853431  1
  H  H6  1  0.11617363  0.37514206  0.05349685  1
  C  C7  1  0.17791055  0.17445997  0.01671758  1
  C  C8  1  0.20170872  0.23026138  0.01652475  1
  H  H9  1  0.19193489  0.42498149  0.06034935  1
  H  H10  1  0.18945470  0.36143890  0.03180120  1
  C  C11  1  0.16279165  0.44752049  0.05262067  1
  C  C12  1  0.19243481  0.28032412  0.00571242  1
  C  C13  1  0.21923023  0.20840020  0.04834205  1
  C  C14  1  0.23325885  0.23109030  0.06495888  1
  H  H15  1  0.18907815  0.46503272  0.01456617  1
  H  H16  1  0.10961676  0.14699525  0.07983920  1
  C  C17  1  0.04996715  0.15878912  0.04329551  1
  H  H18  1  0.06429641  0.17470753  0.03055768  1
  C  C19  1  0.22165892  0.44866249  0.01104577  1
  C  C20  1  0.22143635  0.37694388  0.03710293  1
  H  H21  1  0.05241036  0.20297324  0.08104400  1
  C  C22  1  0.22233629  0.20221092  0.08081800  1
  C  C23  1  0.20032478  0.14637287  0.08103598  1
  H  H24  1  0.21985505  0.32474598  0.06021050  1
  H  H25  1  0.16777723  0.08941618  0.03016653  1
  C  C26  1  0.23751038  0.35796802  0.05275470  1
  H  H27  1  0.17094792  0.07970341  0.06538969  1
  C  C28  1  0.01998969  0.17795018  0.08163251  1
  C  C29  1  0.10698634  0.12150920  0.09138239  1
  H  H30  1  0.23582413  0.22623670  0.09245434  1
  H  H31  1  0.20172639  0.12190218  0.09308244  1
  C  C32  1  0.09758672  0.14787242  0.10748166  1
  H  H33  1  0.09096173  0.19543990  0.10806363  1
  H  H34  1  0.03088901  0.05613182  0.11137060  1
  H  H35  1  0.02400122  0.28656695  0.03962237  1
  H  H36  1  0.20998584  0.32278979  0.00589100  1
  H  H37  1  0.05747965  0.41765306  0.03551267  1
  C  C38  1  0.01689520  0.32993924  0.03408927  1
  C  C39  1  0.01795974  0.33817531  0.01595363  1
  C  C40  1  0.08780583  0.44220374  0.03839053  1
  Zn  Zn41  1  0.01266223  0.10436267  0.06442391  1
  O  O42  1  0.04522946  0.23999604  0.01553210  1
  C  C43  1  0.23883791  0.22616339  0.03041472  1
  C  C44  1  0.24462579  0.42098382  0.02677876  1
  C  C45  1  0.09671267  0.10945358  0.12243108  1
  C  C46  1  0.11475318  0.04782084  0.12204620  1
  C  C47  1  0.11522118  0.05933362  0.08982793  1
  C  C48  1  0.13909626  0.16928165  0.00702216  1
  H  H49  1  0.11826514  0.12871369  0.00799647  1
  H  H50  1  0.24362467  0.48141930  0.00425572  1
  H  H51  1  0.00889150  0.27659061  0.09655877  1
  C  C52  1  0.00429216  0.18443346  0.04817278  1
  H  H53  1  0.12047757  0.04015890  0.07705641  1
  C  C54  1  0.12278049  0.02370004  0.10524874  1
  C  C55  1  0.03215159  0.28098616  0.00634572  1
  O  O56  1  0.23663401  0.00866097  0.02312117  1
  C  C57  1  0.00218922  0.18062243  0.10056542  1
  O  O58  1  0.11723730  0.26764758  0.12324207  1
  H  H59  1  0.19679448  0.22278254  0.11847539  1
  C  C60  1  0.00929812  0.38959735  0.00570061  1
  C  C61  1  0.24113720  0.11502779  0.02485394  1
  H  H62  1  0.24246811  0.31654477  0.11917854  1
  C  C63  1  0.25112679  0.07069424  0.11959254  1
  H  H64  1  0.26289051  0.16252118  0.11981818  1
  H  H65  1  0.25309678  0.27262684  0.06488298  1
  H  H66  1  0.25843076  0.26891089  0.02852619  1
  O  O67  1  0.27751399  0.32342564  0.08705206  1
  C  C68  1  0.26121337  0.01962773  0.10917590  1
  C  C69  1  0.27919373  0.37853829  0.05943246  1
  C  C70  1  0.26000426  0.05845222  0.02018043  1
  C  C71  1  0.46680713  0.01912607  0.08504079  1
  C  C72  1  0.26722678  0.12264558  0.11099949  1
  C  C73  1  0.26323482  0.16919587  0.02399976  1
  C  C74  1  0.28492001  0.44511147  0.03341607  1
  C  C75  1  0.45249523  0.44623985  0.03842047  1
  C  C76  1  0.34599275  0.18001604  0.06059942  1
  C  C77  1  0.31259895  0.12965200  0.05673421  1
  C  C78  1  0.34249386  0.23969901  0.05381959  1
  H  H79  1  0.27816321  0.15173259  0.05592665  1
  H  H80  1  0.32006355  0.10934941  0.04380198  1
  C  C81  1  0.37312955  0.28170496  0.05966777  1
  O  O82  1  0.30656034  0.07028432  0.06701371  1
  H  H83  1  0.31717113  0.25343780  0.04416739  1
  H  H84  1  0.41005007  0.41310260  0.01819278  1
  H  H85  1  0.37146457  0.32599471  0.05426050  1
  C  C86  1  0.41922837  0.45293053  0.02584611  1
  C  C87  1  0.42906700  0.24892696  0.02625442  1
  H  H88  1  0.41023589  0.21473142  0.03325110  1
  H  H89  1  0.46819677  0.40361610  0.04246784  1
  C  C90  1  0.30035845  0.42249674  0.04954239  1
  H  H91  1  0.32950266  0.43718773  0.05660337  1
  C  C92  1  0.41209554  0.27045699  0.00979841  1
  C  C93  1  0.41576043  0.06306683  0.04372584  1
  O  O94  1  0.32541282  0.22674969  0.01316639  1
  C  C95  1  0.30556463  0.17536279  0.01537789  1
  C  C96  1  0.46640442  0.27631925  0.03368238  1
  O  O97  1  0.44627882  0.10428751  0.04282390  1
  C  C98  1  0.38014490  0.16531304  0.07250579  1
  C  C99  1  0.40659813  0.26602416  0.07189340  1
  C  C100  1  0.29160215  0.36222104  0.07798890  1
  O  O101  1  0.43039895  0.36892202  0.07266230  1
  C  C102  1  0.47073078  0.34212016  0.00772328  1
  H  H103  1  0.48158928  0.26051170  0.04566796  1
  H  H104  1  0.35012699  0.02907264  0.08330942  1
  C  C105  1  0.38515941  0.03619353  0.08852462  1
  C  C106  1  0.43476298  0.31767680  0.07774531  1
  C  C107  1  0.40801739  0.20711647  0.07921053  1
  C  C108  1  0.28814238  0.07240882  0.08273436  1
  H  H109  1  0.29340231  0.16451468  0.08777058  1
  H  H110  1  0.38526999  0.11965085  0.07645373  1
  O  O111  1  0.31836706  0.40117818  0.08549919  1
  H  H112  1  0.43272174  0.19703126  0.08933206  1
  O  O113  1  0.46735879  0.30645421  0.08754961  1
  C  C114  1  0.28155979  0.12294735  0.09374960  1
  C  C115  1  0.39268679  0.06822133  0.10423521  1
  O  O116  1  0.46396002  0.45764895  0.10912153  1
  C  C117  1  0.43692158  0.07309727  0.10913466  1
  Zn  Zn118  1  0.35449669  0.34734232  0.10432913  1
  H  H119  1  0.36823564  0.09192008  0.11313043  1
  C  C120  1  0.37637628  0.27091875  0.11770249  1
  C  C121  1  0.42353630  0.45120483  0.11298065  1
  C  C122  1  0.47568084  0.04859415  0.10159033  1
  C  C123  1  0.30438089  0.06487687  0.01444615  1
  H  H124  1  0.44045924  0.09608535  0.12195562  1
  C  C125  1  0.37499171  0.03755978  0.04035580  1
  C  C126  1  0.37473149  0.23095227  0.00338727  1
  C  C127  1  0.42240885  0.01711259  0.07961509  1
  H  H128  1  0.30722749  0.23354541  0.11396714  1
  H  H129  1  0.34357970  0.46260689  0.00863391  1
  H  H130  1  0.30299999  0.47960249  0.02683109  1
  C  C131  1  0.28059946  0.02000772  0.09258324  1
  Zn  Zn132  1  0.49745851  0.39926340  0.08924154  1
  C  C133  1  0.48727565  0.32085921  0.02382508  1
  H  H134  1  0.46164689  0.09123821  0.06956983  1
  C  C135  1  0.34342911  0.22690665  0.11814021  1
  C  C136  1  0.32520666  0.11896799  0.01195590  1
  C  C137  1  0.43185447  0.31993744  0.00051384  1
  H  H138  1  0.38419375  0.18372159  0.00697633  1
  H  H139  1  0.44159393  0.31294027  0.12471471  1
  O  O140  1  0.41014299  0.40928016  0.12235437  1
  H  H141  1  0.33648050  0.45952758  0.12217595  1
  C  C142  1  0.48279311  0.10088263  0.05823165  1
  C  C143  1  0.46553206  0.49928880  0.04719570  1
  C  C144  1  0.49558483  0.13968843  0.00141156  1
  C  C145  1  0.49839177  0.49633069  0.06164898  1
  H  H146  1  0.49680597  0.05805328  0.05248291  1
  C  C147  1  0.34784112  0.49051208  0.11224437  1
  C  C148  1  0.42041926  0.27119157  0.12492514  1
  C  C149  1  0.39255057  0.49868725  0.10710833  1
  H  H150  1  0.49143343  0.37618730  0.00125335  1
  H  H151  1  0.35822602  0.11542660  0.00593725  1
  H  H152  1  0.32343637  0.02447704  0.01145907  1
  H  H153  1  0.00699339  0.25474489  0.15845174  1
  H  H154  1  0.18715106  0.47871181  0.20806389  1
  O  O155  1  0.15927548  0.41267945  0.12979272  1
  C  C156  1  0.13113237  0.30458995  0.13269782  1
  C  C157  1  0.22109752  0.23407650  0.12993308  1
  H  H158  1  0.17932614  0.13433251  0.13088014  1
  O  O159  1  0.01291801  0.39043443  0.23201236  1
  C  C160  1  0.14323703  0.36909046  0.13424026  1
  H  H161  1  0.04473895  0.32562119  0.13489750  1
  C  C162  1  0.11557514  0.46664124  0.21708550  1
  H  H163  1  0.08375709  0.18885979  0.13769844  1
  C  C164  1  0.09019119  0.14051239  0.13798598  1
  C  C165  1  0.06547871  0.47145695  0.19370196  1
  O  O166  1  0.22788430  0.07049742  0.13443918  1
  H  H167  1  0.06943996  0.41863739  0.14338257  1
  C  C168  1  0.03457741  0.42374578  0.16761268  1
  C  C169  1  0.03762392  0.33553684  0.14862205  1
  C  C170  1  0.04969307  0.39579681  0.15256982  1
  C  C171  1  0.20726352  0.13206307  0.14083447  1
  Zn  Zn172  1  0.15281004  0.30950430  0.15886256  1
  H  H173  1  0.03777968  0.06113462  0.14259128  1
  C  C174  1  0.09916609  0.11056318  0.15394091  1
  C  C175  1  0.12009291  0.05355604  0.15507648  1
  H  H176  1  0.19651124  0.11404644  0.15347668  1
  O  O177  1  0.07402721  0.19520535  0.17136227  1
  C  C178  1  0.09005711  0.14297635  0.17015003  1
  H  H179  1  0.05975408  0.27110949  0.18333411  1
  C  C180  1  0.06371728  0.22724740  0.18988756  1
  O  O181  1  0.15446108  0.29764538  0.18509910  1
  H  H182  1  0.09639711  0.23097214  0.19713692  1
  C  C183  1  0.10860810  0.11286006  0.18499683  1
  C  C184  1  0.03326328  0.44403550  0.20469195  1
  C  C185  1  0.03987014  0.42415755  0.22204610  1
  C  C186  1  0.08374317  0.43704219  0.22677323  1
  O  O187  1  0.15868165  0.22062005  0.20226388  1
  C  C188  1  0.17570675  0.26239076  0.19542724  1
  C  C189  1  0.03107329  0.21712570  0.22133301  1
  C  C190  1  0.02743400  0.21014915  0.20226603  1
  H  H191  1  0.06306756  0.20891098  0.22715635  1
  C  C192  1  0.13003163  0.06037743  0.18478375  1
  H  H193  1  0.10042687  0.13619062  0.19793077  1
  H  H194  1  0.08678906  0.31882399  0.22420775  1
  H  H195  1  0.16178146  0.26786002  0.23039610  1
  H  H196  1  0.14385551  0.04269466  0.19769486  1
  C  C197  1  0.09973089  0.31392397  0.23792539  1
  H  H198  1  0.09355547  0.42287575  0.23984959  1
  C  C199  1  0.21264397  0.41767909  0.24523209  1
  C  C200  1  0.13992079  0.28392382  0.24138498  1
  H  H201  1  0.00537038  0.24285933  0.24546476  1
  C  C202  1  0.13788881  0.02422095  0.16950788  1
  C  C203  1  0.22855212  0.19230759  0.14335036  1
  C  C204  1  0.00853013  0.38695159  0.17902024  1
  C  C205  1  0.01536839  0.30070136  0.16102257  1
  H  H206  1  0.00579184  0.17250035  0.16960892  1
  C  C207  1  0.22428040  0.27718465  0.19696836  1
  H  H208  1  0.14780777  0.47488838  0.22350299  1
  C  C209  1  0.10926258  0.48340102  0.19951498  1
  C  C210  1  0.21359465  0.48040376  0.24831296  1
  C  C211  1  0.06781799  0.01962699  0.21909618  1
  C  C212  1  0.03862455  0.01230143  0.14444915  1
  C  C213  1  0.04575215  0.48516153  0.17582964  1
  O  O214  1  0.20582824  0.00185527  0.24013286  1
  H  H215  1  0.22659820  0.35509570  0.18091300  1
  C  C216  1  0.11936904  0.01196178  0.13888652  1
  H  H217  1  0.22829383  0.20469137  0.21502615  1
  H  H218  1  0.22989873  0.02468022  0.20819867  1
  C  C219  1  0.24290649  0.03401256  0.23507635  1
  C  C220  1  0.24625271  0.39004026  0.23542789  1
  H  H221  1  0.24422878  0.34167425  0.23358899  1
  C  C222  1  0.24877184  0.24173535  0.20875312  1
  O  O223  1  0.21588039  0.22730261  0.24928204  1
  C  C224  1  0.24769062  0.28410714  0.12943386  1
  C  C225  1  0.24686381  0.32526722  0.18954063  1
  C  C226  1  0.03177420  0.37049357  0.24931873  1
  C  C227  1  0.31457799  0.30315368  0.20495970  1
  H  H228  1  0.29335647  0.08274359  0.19749523  1
  O  O229  1  0.36860711  0.37281901  0.22411916  1
  C  C230  1  0.40099390  0.17178364  0.13412098  1
  C  C231  1  0.31913437  0.11014112  0.22287430  1
  O  O232  1  0.38044365  0.48916860  0.16626029  1
  H  H233  1  0.39215331  0.00458913  0.20328406  1
  H  H234  1  0.49546768  0.05596773  0.13457901  1
  H  H235  1  0.45383349  0.12969241  0.15024765  1
  O  O236  1  0.35231936  0.14341153  0.21832099  1
  C  C237  1  0.36180475  0.32056068  0.21097574  1
  C  C238  1  0.38775035  0.19640909  0.19090569  1
  H  H239  1  0.31938615  0.17324843  0.19625746  1
  H  H240  1  0.38032165  0.33706895  0.19917157  1
  C  C241  1  0.38983321  0.36067679  0.23895172  1
  C  C242  1  0.39093510  0.03665753  0.16148883  1
  C  C243  1  0.49105142  0.08798782  0.20815753  1
  C  C244  1  0.48895883  0.12232247  0.23744733  1
  O  O245  1  0.30356584  0.37881864  0.12697743  1
  C  C246  1  0.43349910  0.21812078  0.13318749  1
  H  H247  1  0.46706710  0.21307698  0.13984787  1
  H  H248  1  0.33183735  0.14510995  0.13193225  1
  C  C249  1  0.30944284  0.34901282  0.13999938  1
  C  C250  1  0.41255297  0.30739923  0.24191152  1
  O  O251  1  0.48083197  0.37138916  0.18344072  1
  H  H252  1  0.34527821  0.47759767  0.24510459  1
  C  C253  1  0.31281930  0.09092724  0.24060676  1
  C  C254  1  0.37986026  0.21665369  0.17311231  1
  C  C255  1  0.29158190  0.33724514  0.19249679  1
  H  H256  1  0.25182413  0.43978709  0.20044533  1
  H  H257  1  0.30893670  0.37224036  0.18517402  1
  C  C258  1  0.35670215  0.17758314  0.12775644  1
  H  H259  1  0.41439773  0.27204566  0.23204779  1
  C  C260  1  0.46045064  0.34332958  0.17191282  1
  H  H261  1  0.39980529  0.28101994  0.15382727  1
  O  O262  1  0.45101955  0.36057704  0.15726070  1
  O  O263  1  0.40269278  0.05849134  0.14659538  1
  H  H264  1  0.31180243  0.26716936  0.16709590  1
  H  H265  1  0.47612341  0.28816900  0.20268434  1
  C  C266  1  0.25932407  0.47639334  0.19199063  1
  O  O267  1  0.33710820  0.35803330  0.15203937  1
  H  H268  1  0.37361339  0.13013330  0.24930156  1
  H  H269  1  0.46030526  0.47358352  0.21263168  1
  C  C270  1  0.25322869  0.04466930  0.21725821  1
  C  C271  1  0.43641193  0.29223421  0.17898296  1
  H  H272  1  0.43429021  0.19836190  0.21262195  1
  C  C273  1  0.28071991  0.42410205  0.22738516  1
  C  C274  1  0.29117280  0.25572086  0.21316259  1
  C  C275  1  0.42599309  0.21764999  0.20014865  1
  C  C276  1  0.28000364  0.48589710  0.22985353  1
  C  C277  1  0.40392141  0.26530886  0.16792812  1
  H  H278  1  0.47502331  0.06573088  0.19631229  1
  C  C279  1  0.28020965  0.29501284  0.14212675  1
  C  C280  1  0.30086764  0.48107758  0.18464867  1
  H  H281  1  0.37510679  0.45806345  0.21119571  1
  C  C282  1  0.27771221  0.05355354  0.24597112  1
  H  H283  1  0.26693837  0.17777142  0.16833079  1
  C  C284  1  0.44923148  0.26731262  0.19529270  1
  H  H285  1  0.30917615  0.40511393  0.22011925  1
  C  C286  1  0.41653064  0.12699205  0.14759151  1
  H  H287  1  0.30991309  0.22738073  0.22174122  1
  C  C288  1  0.35292779  0.15511091  0.19787610  1
  H  H289  1  0.42873448  0.08326363  0.22232647  1
  C  C290  1  0.28957078  0.07730715  0.21175921  1
  H  H291  1  0.39656368  0.13285921  0.15963945  1
  C  C292  1  0.28699488  0.25744406  0.15629295  1
  H  H293  1  0.35410434  0.11271468  0.19130353  1
  H  H294  1  0.35244834  0.19862353  0.16534183  1
  C  C295  1  0.38023664  0.01567121  0.17553527  1
  C  C296  1  0.46447948  0.09657105  0.22234808  1
  H  H297  1  0.37637359  0.27868252  0.21549920  1
  Zn  Zn298  1  0.39512984  0.41386648  0.15088117  1
  C  C299  1  0.26055608  0.20600894  0.15668080  1
  H  H300  1  0.32887407  0.45227031  0.18856446  1
  H  H301  1  0.14567645  0.30444510  0.28637599  1
  H  H302  1  0.22875619  0.39829546  0.28451171  1
  H  H303  1  0.13470388  0.05266249  0.28563208  1
  C  C304  1  0.12838069  0.40919178  0.32500677  1
  H  H305  1  0.13816871  0.39898162  0.31172160  1
  H  H306  1  0.07205875  0.35728802  0.28142446  1
  C  C307  1  0.13141160  0.31217274  0.27313370  1
  C  C308  1  0.09129370  0.34049799  0.27010108  1
  O  O309  1  0.21295941  0.24745683  0.27794744  1
  C  C310  1  0.06640143  0.20086802  0.26639958  1
  C  C311  1  0.02005234  0.21220344  0.27134262  1
  C  C312  1  0.14263959  0.46290728  0.33220344  1
  C  C313  1  0.10014908  0.37021165  0.33476453  1
  C  C314  1  0.08077139  0.39240012  0.35007688  1
  C  C315  1  0.09527063  0.44833667  0.35617865  1
  C  C316  1  0.07534103  0.08465664  0.26359808  1
  C  C317  1  0.09224367  0.14667222  0.26285955  1
  C  C318  1  0.15322761  0.01492138  0.28830809  1
  H  H319  1  0.09128599  0.32863415  0.32844700  1
  H  H320  1  0.14380508  0.01741502  0.31686890  1
  H  H321  1  0.08564910  0.24146241  0.26539672  1
  C  C322  1  0.19578592  0.24975332  0.26093727  1
  H  H323  1  0.15421035  0.48326811  0.26582012  1
  H  H324  1  0.21290530  0.47518880  0.35399179  1
  C  C325  1  0.15318929  0.28438165  0.25896488  1
  H  H326  1  0.19678744  0.06071071  0.25826458  1
  H  H327  1  0.23506936  0.08880434  0.29644586  1
  C  C328  1  0.12813612  0.48293259  0.34914181  1
  H  H329  1  0.20949071  0.48554504  0.32155584  1
  C  C330  1  0.18295163  0.01713163  0.25685797  1
  Zn  Zn331  1  0.01240668  0.12114361  0.27183120  1
  H  H332  1  0.03242094  0.41705615  0.25620334  1
  H  H333  1  0.23872327  0.22325242  0.27663179  1
  C  C334  1  0.07687518  0.34011942  0.25238938  1
  Zn  Zn335  1  0.04518394  0.41752404  0.37331554  1
  O  O336  1  0.08398131  0.03306791  0.26179416  1
  H  H337  1  0.12709296  0.15042877  0.25893746  1
  H  H338  1  0.03510479  0.01200886  0.35541611  1
  H  H339  1  0.24753044  0.01791812  0.26999133  1
  C  C340  1  0.23930628  0.49945514  0.36082754  1
  O  O341  1  0.01945258  0.15726025  0.32555413  1
  H  H342  1  0.00331331  0.34262712  0.25434309  1
  C  C343  1  0.00522269  0.45210190  0.28550369  1
  H  H344  1  0.01104146  0.43321677  0.29879486  1
  H  H345  1  0.18838813  0.39132591  0.25305414  1
  H  H346  1  0.14845322  0.02096965  0.25150429  1
  H  H347  1  0.46808494  0.49800542  0.25508100  1
  H  H348  1  0.48517926  0.13164481  0.29593831  1
  H  H349  1  0.48488052  0.06925821  0.32177576  1
  H  H350  1  0.47316609  0.49658877  0.29782106  1
  O  O351  1  0.25090303  0.05326907  0.32575898  1
  H  H352  1  0.25180561  0.18387745  0.31206161  1
  H  H353  1  0.28105641  0.25473713  0.32749527  1
  C  C354  1  0.39988524  0.01628665  0.25953285  1
  H  H355  1  0.26905035  0.36487031  0.31074246  1
  C  C356  1  0.26526951  0.40527058  0.28463493  1
  O  O357  1  0.44326022  0.14077310  0.26635363  1
  C  C358  1  0.26331077  0.11740862  0.29183754  1
  C  C359  1  0.28794532  0.38613285  0.29993273  1
  C  C360  1  0.27165454  0.17207480  0.30045866  1
  H  H361  1  0.34198337  0.26639875  0.32258247  1
  C  C362  1  0.28855118  0.43391468  0.27095898  1
  H  H363  1  0.31320881  0.25189976  0.29930358  1
  C  C364  1  0.27728948  0.04170716  0.26571710  1
  C  C365  1  0.28483753  0.09988289  0.27632242  1
  C  C366  1  0.30500489  0.20998976  0.29353891  1
  C  C367  1  0.33387840  0.39390660  0.30253467  1
  H  H368  1  0.35317644  0.38444878  0.31423246  1
  C  C369  1  0.33568011  0.43707607  0.27250478  1
  C  C370  1  0.35683318  0.41938517  0.28815427  1
  H  H371  1  0.42872408  0.40429707  0.29649693  1
  C  C372  1  0.40801788  0.42197883  0.28528295  1
  O  O373  1  0.44133405  0.30320985  0.28904437  1
  H  H374  1  0.44799641  0.21480945  0.28109422  1
  C  C375  1  0.40954468  0.37673996  0.26978103  1
  C  C376  1  0.46558465  0.24543509  0.29048493  1
  C  C377  1  0.42205792  0.48504332  0.27882436  1
  C  C378  1  0.42877551  0.32012353  0.27316273  1
  C  C379  1  0.47060377  0.21840138  0.30888268  1
  C  C380  1  0.35731692  0.04145994  0.26150593  1
  H  H381  1  0.40019108  0.07943101  0.29628111  1
  C  C382  1  0.32969924  0.19122858  0.27875500  1
  C  C383  1  0.32169257  0.13509572  0.27060071  1
  C  C384  1  0.43079501  0.28805095  0.25743642  1
  C  C385  1  0.38523230  0.04295774  0.30351368  1
  H  H386  1  0.44897364  0.29679552  0.32495226  1
  C  C387  1  0.34305192  0.05035675  0.31052940  1
  H  H388  1  0.32306469  0.09276962  0.31021941  1
  C  C389  1  0.46149464  0.24909755  0.32451697  1
  H  H390  1  0.35545024  0.22281926  0.27399668  1
  H  H391  1  0.47614334  0.37995868  0.26294268  1
  H  H392  1  0.27218783  0.44292556  0.33012561  1
  H  H393  1  0.37235460  0.16745278  0.32901642  1
  C  C394  1  0.31403263  0.26672082  0.33301456  1
  O  O395  1  0.29969593  0.33239263  0.33635789  1
  C  C396  1  0.29816325  0.46955172  0.33687817  1
  C  C397  1  0.46937664  0.11594965  0.35495932  1
  C  C398  1  0.33105089  0.36523697  0.34353513  1
  C  C399  1  0.33398709  0.42768506  0.34485842  1
  H  H400  1  0.37341844  0.29354309  0.35294790  1
  C  C401  1  0.46239507  0.21211159  0.33922155  1
  C  C402  1  0.37098475  0.34137569  0.35183523  1
  C  C403  1  0.32689754  0.22192317  0.34662974  1
  C  C404  1  0.35899731  0.17556087  0.34284979  1
  C  C405  1  0.36668703  0.14039661  0.35696751  1
  H  H406  1  0.39451400  0.10957983  0.35535156  1
  C  C407  1  0.40787002  0.37117732  0.35811424  1
  C  C408  1  0.47316357  0.15126422  0.33806540  1
  C  C409  1  0.41053249  0.43674225  0.35794374  1
  C  C410  1  0.37026342  0.46074485  0.35155414  1
  O  O411  1  0.44583832  0.46548434  0.36354480  1
  H  H412  1  0.30808931  0.03739177  0.35790192  1
  H  H413  1  0.45537436  0.23133658  0.35221330  1
  C  C414  1  0.30944253  0.23461422  0.36380357  1
  H  H415  1  0.28917130  0.27551258  0.36586581  1
  H  H416  1  0.44461328  0.24376585  0.25744132  1
  C  C417  1  0.48021092  0.15618691  0.30799566  1
  C  C418  1  0.36475680  0.45751897  0.25674861  1
  C  C419  1  0.39066529  0.39741079  0.25414529  1
  H  H420  1  0.27474938  0.44223379  0.25788265  1
  C  C421  1  0.48193468  0.12017372  0.32250291  1
  O  O422  1  0.46453583  0.06063195  0.35552403  1
  H  H423  1  0.42739335  0.04518599  0.25408934  1
  H  H424  1  0.43383819  0.34347779  0.36399822  1
  H  H425  1  0.48578719  0.39476467  0.35976351  1
  C  C426  1  0.34635197  0.10679608  0.25500103  1
  C  C427  1  0.32129928  0.00578840  0.26809720  1
  C  C428  1  0.46245915  0.13174243  0.25346904  1
  O  O429  1  0.48392460  0.02496959  0.29602383  1
  C  C430  1  0.27773733  0.01659494  0.32496545  1
  H  H431  1  0.49680462  0.26438867  0.28473378  1
  H  H432  1  0.29134418  0.49754587  0.29875540  1
  C  C433  1  0.34818622  0.14810951  0.37400835  1
  O  O434  1  0.46548647  0.14351010  0.36878954  1
  C  C435  1  0.48732493  0.42565968  0.37108472  1
  H  H436  1  0.00578793  0.43431106  0.45901905  1
  C  C437  1  0.00601653  0.09524363  0.46541534  1
  H  H438  1  0.00225261  0.16081943  0.38518825  1
  O  O439  1  0.20107239  0.40342158  0.37680093  1
  O  O440  1  0.06609556  0.10627148  0.38073274  1
  H  H441  1  0.24355142  0.03638488  0.37771880  1
  H  H442  1  0.06157240  0.47108607  0.45349578  1
  C  C443  1  0.02799735  0.00383997  0.41950580  1
  C  C444  1  0.01588079  0.05394293  0.47820812  1
  H  H445  1  0.01098771  0.03709500  0.42666074  1
  C  C446  1  0.04129936  0.44046617  0.46157314  1
  C  C447  1  0.02552340  0.15345244  0.46176994  1
  H  H448  1  0.09480244  0.06197241  0.39925246  1
  H  H449  1  0.14653525  0.30952245  0.38510972  1
  C  C450  1  0.20999845  0.40106124  0.39229728  1
  H  H451  1  0.09728197  0.14907485  0.40158505  1
  C  C452  1  0.02542107  0.35805240  0.39218331  1
  C  C453  1  0.08527074  0.10812921  0.39389689  1
  H  H454  1  0.08683066  0.29448211  0.42574570  1
  C  C455  1  0.07171451  0.45783676  0.42253739  1
  O  O456  1  0.02631391  0.26905634  0.42365283  1
  C  C457  1  0.03523482  0.23979620  0.44032988  1
  C  C458  1  0.06008866  0.33920383  0.40271259  1
  H  H459  1  0.09480664  0.35533864  0.40023877  1
  C  C460  1  0.16378615  0.30588643  0.39784546  1
  H  H461  1  0.12408449  0.23186382  0.40781639  1
  C  C462  1  0.21391441  0.08865246  0.40473711  1
  C  C463  1  0.19551786  0.34637912  0.40386064  1
  C  C464  1  0.15145900  0.26027907  0.41022119  1
  C  C465  1  0.05690590  0.30169640  0.41711949  1
  C  C466  1  0.22536995  0.45130723  0.46357760  1
  C  C467  1  0.06422171  0.40655427  0.47279639  1
  C  C468  1  0.21457240  0.35072084  0.42055476  1
  H  H469  1  0.05802223  0.41279439  0.42003749  1
  C  C470  1  0.19158824  0.13146585  0.41468120  1
  C  C471  1  0.16998078  0.26319878  0.42718339  1
  O  O472  1  0.06600042  0.15209625  0.48961605  1
  H  H473  1  0.14173329  0.43280363  0.42437037  1
  C  C474  1  0.05496446  0.17886227  0.47394956  1
  C  C475  1  0.20007272  0.30822267  0.43254338  1
  H  H476  1  0.12890233  0.36484542  0.48199160  1
  C  C477  1  0.09142173  0.37353217  0.48380059  1
  C  C478  1  0.15557742  0.11754403  0.42584487  1
  C  C479  1  0.15464205  0.21733310  0.44057190  1
  C  C480  1  0.14259859  0.05723206  0.42539682  1
  H  H481  1  0.09215847  0.26102541  0.47891091  1
  H  H482  1  0.07848529  0.30311002  0.45083824  1
  O  O483  1  0.13286131  0.15475106  0.43616303  1
  H  H484  1  0.08174887  0.06752716  0.44149153  1
  H  H485  1  0.13184691  0.23583266  0.45056411  1
  C  C486  1  0.20448451  0.37710128  0.48700286  1
  C  C487  1  0.06258319  0.26050821  0.45302112  1
  C  C488  1  0.07073575  0.23600571  0.46960450  1
  H  H489  1  0.18486420  0.20592658  0.44776214  1
  H  H490  1  0.20891853  0.31314238  0.44681313  1
  C  C491  1  0.22844158  0.39372816  0.47180538  1
  H  H492  1  0.19997272  0.17827690  0.41333826  1
  C  C493  1  0.16815333  0.47291728  0.48537069  1
  C  C494  1  0.17937823  0.10040330  0.47591770  1
  H  H495  1  0.17102139  0.10398083  0.46218103  1
  C  C496  1  0.16337812  0.06555037  0.48833865  1
  C  C497  1  0.10147795  0.03152253  0.43482105  1
  C  C498  1  0.20255691  0.02725532  0.40432957  1
  C  C499  1  0.16598489  0.01697406  0.41513992  1
  C  C500  1  0.24348780  0.02758454  0.45211235  1
  C  C501  1  0.17468858  0.41726647  0.49446177  1
  C  C502  1  0.19445317  0.49141743  0.47044170  1
  H  H503  1  0.23803804  0.38489826  0.42450191  1
  O  O504  1  0.22969051  0.44064082  0.39937199  1
  H  H505  1  0.08331608  0.00034399  0.47066457  1
  H  H506  1  0.24146460  0.10203349  0.39610860  1
  H  H507  1  0.21369302  0.33428783  0.49363938  1
  C  C508  1  0.11686183  0.46737868  0.42523195  1
  C  C509  1  0.01913760  0.18146756  0.44445078  1
  H  H510  1  0.24737946  0.46373085  0.45277984  1
  C  C511  1  0.02848597  0.01867390  0.49199684  1
  H  H512  1  0.22005672  0.00207114  0.44405307  1
  Zn  Zn513  1  0.21504206  0.12181423  0.49733384  1
  H  H514  1  0.07488339  0.18909314  0.49645081  1
  C  C515  1  0.01834320  0.33377838  0.49819570  1
  C  C516  1  0.06465470  0.34062798  0.49579309  1
  H  H517  1  0.25988661  0.09696123  0.43260787  1
  H  H518  1  0.49151920  0.35062630  0.41372652  1
  H  H519  1  0.30152651  0.00582879  0.49140403  1
  Zn  Zn520  1  0.32449513  0.26610194  0.47972182  1
  H  H521  1  0.47457059  0.40278715  0.38274431  1
  C  C522  1  0.36630961  0.00231122  0.44816285  1
  C  C523  1  0.38177261  0.04911953  0.43743995  1
  C  C524  1  0.25964369  0.34745527  0.46536088  1
  C  C525  1  0.46359744  0.23361662  0.49509016  1
  H  H526  1  0.49450177  0.05651714  0.46442758  1
  C  C527  1  0.42433730  0.04923613  0.42998115  1
  O  O528  1  0.42556243  0.29218040  0.43384861  1
  C  C529  1  0.25818117  0.00508441  0.46879946  1
  Zn  Zn530  1  0.45042657  0.05395060  0.38548998  1
  O  O531  1  0.25993048  0.29703515  0.47214245  1
  H  H532  1  0.28296034  0.03532098  0.39661487  1
  O  O533  1  0.42412446  0.15255319  0.42347310  1
  C  C534  1  0.26384464  0.07791849  0.44569980  1
  O  O535  1  0.43038597  0.43165834  0.45811670  1
  Zn  Zn536  1  0.35862650  0.18071253  0.41923285  1
  C  C537  1  0.31819406  0.19506027  0.37706673  1
  H  H538  1  0.36495973  0.08913807  0.43654746  1
  O  O539  1  0.47734725  0.36815952  0.47021721  1
  C  C540  1  0.39436641  0.37082728  0.41660291  1
  O  O541  1  0.28754220  0.35767690  0.45347046  1
  C  C542  1  0.26547723  0.00723885  0.38614585  1
  C  C543  1  0.36048410  0.44255327  0.39663527  1
  C  C544  1  0.36158793  0.38736243  0.40419333  1
  C  C545  1  0.47411886  0.47055758  0.48047305  1
  C  C546  1  0.30566942  0.08610750  0.47459891  1
  C  C547  1  0.33442433  0.49151414  0.46344869  1
  H  H548  1  0.37846542  0.49984864  0.44147642  1
  C  C549  1  0.44301837  0.10288846  0.42100073  1
  C  C550  1  0.29050710  0.02973258  0.47998959  1
  H  H551  1  0.33716840  0.45586075  0.38544535  1
  O  O552  1  0.37169034  0.32481156  0.47088265  1
  C  C553  1  0.39344493  0.48138762  0.40463245  1
  O  O554  1  0.47370243  0.09521318  0.41002058  1
  H  H555  1  0.32626608  0.11375008  0.48274013  1
  C  C556  1  0.39509344  0.30903379  0.42425222  1
  C  C557  1  0.42512692  0.46874241  0.41799758  1
  O  O558  1  0.36827275  0.27310620  0.41721530  1
  Zn  Zn559  1  0.35126861  0.40211779  0.46158304  1
  H  H560  1  0.41273231  0.33716142  0.49034072  1
  H  H561  1  0.30296398  0.20058583  0.39016577  1
  O  O562  1  0.34164228  0.18679707  0.46517468  1
  C  C563  1  0.29805624  0.48003551  0.49421425  1
  O  O564  1  0.44170074  0.22773831  0.48040805  1
  C  C565  1  0.31576172  0.16436653  0.45407101  1
  O  O566  1  0.31098849  0.18831972  0.43893948  1
  Zn  Zn567  1  0.43238432  0.29445061  0.46204903  1
  C  C568  1  0.35284375  0.10273815  0.38691724  1
  H  H569  1  0.34080156  0.35089569  0.39899312  1
  C  C570  1  0.42688539  0.40887496  0.42333839  1
  H  H571  1  0.33264849  0.00389994  0.45338634  1
  H  H572  1  0.44782238  0.39483521  0.43394772  1
  C  C573  1  0.45994607  0.41930679  0.46858153  1
  O  O574  1  0.38000507  0.05962783  0.38386112  1
  O  O575  1  0.33547087  0.11211786  0.40129574  1
  C  C576  1  0.29313044  0.10717810  0.45787752  1
  O  O577  1  0.11133045  0.33811815  0.55937821  1
  C  C578  1  0.08590835  0.38173749  0.56402222  1
  C  C579  1  0.15459943  0.36492143  0.54888294  1
  H  H580  1  0.16990647  0.39114501  0.56043646  1
  H  H581  1  0.13937883  0.39923251  0.53969969  1
  H  H582  1  0.15550033  0.25099836  0.55056658  1
  O  O583  1  0.05429607  0.44410997  0.53155176  1
  C  C584  1  0.18831730  0.33021396  0.53906209  1
  C  C585  1  0.18284567  0.26739813  0.54176302  1
  H  H586  1  0.05565976  0.23091131  0.57275082  1
  C  C587  1  0.03978775  0.19032396  0.57791044  1
  C  C588  1  0.21671476  0.23330669  0.53513163  1
  C  C589  1  0.04971387  0.13247888  0.57096868  1
  O  O590  1  0.10031258  0.16773008  0.54894285  1
  C  C591  1  0.19591399  0.16242505  0.58324814  1
  C  C592  1  0.08029029  0.13076702  0.55626502  1
  H  H593  1  0.14499231  0.10327087  0.59722240  1
  C  C594  1  0.07043077  0.27154747  0.52171920  1
  H  H595  1  0.09292357  0.24855010  0.53171655  1
  C  C596  1  0.07763669  0.43825796  0.56997223  1
  C  C597  1  0.03451356  0.07623925  0.57699657  1
  H  H598  1  0.21258016  0.18539160  0.53640711  1
  O  O599  1  0.08268314  0.06647999  0.54884367  1
  H  H600  1  0.10314340  0.07097957  0.53912452  1
  H  H601  1  0.14513402  0.28706796  0.51623406  1
  C  C602  1  0.15284324  0.12731425  0.58535047  1
  H  H603  1  0.14485116  0.10095200  0.57431533  1
  Zn  Zn604  1  0.14822266  0.20980443  0.59989719  1
  C  C605  1  0.02340186  0.39996177  0.61372858  1
  C  C606  1  0.02252625  0.45653663  0.60643944  1
  C  C607  1  0.21066106  0.39328923  0.61593758  1
  C  C608  1  0.22487975  0.37015852  0.59805818  1
  Zn  Zn609  1  0.01882495  0.38955563  0.56164925  1
  O  O610  1  0.22895435  0.17840891  0.57676984  1
  C  C611  1  0.09142907  0.30500174  0.50739611  1
  O  O612  1  0.13528099  0.30427676  0.50416966  1
  H  H613  1  0.05342806  0.22671797  0.61402551  1
  O  O614  1  0.23099299  0.31472227  0.59604722  1
  O  O615  1  0.23029077  0.40317424  0.58541161  1
  H  H616  1  0.04418420  0.03306161  0.57185457  1
  C  C617  1  0.22429426  0.35698932  0.52986456  1
  C  C618  1  0.06163310  0.38266813  0.62417753  1
  H  H619  1  0.16814598  0.46842369  0.58557911  1
  C  C620  1  0.02546152  0.26946713  0.52373650  1
  C  C621  1  0.01171381  0.19085741  0.59256520  1
  C  C622  1  0.21652046  0.45417160  0.62114371  1
  H  H623  1  0.15669916  0.40597704  0.50679872  1
  C  C624  1  0.17102395  0.05212411  0.50732959  1
  H  H625  1  0.01085670  0.24303708  0.53478867  1
  H  H626  1  0.22680178  0.48751968  0.61234055  1
  C  C627  1  0.09298876  0.48049466  0.62024525  1
  H  H628  1  0.04472972  0.03629807  0.50419045  1
  O  O629  1  0.16499709  0.03078608  0.52117165  1
  H  H630  1  0.18058651  0.30950796  0.62290135  1
  C  C631  1  0.00836891  0.08204382  0.59143507  1
  H  H632  1  0.22635096  0.40436706  0.52987731  1
  C  C633  1  0.19742054  0.01055331  0.58583742  1
  O  O634  1  0.20964853  0.49744344  0.54347559  1
  H  H635  1  0.22288946  0.02896173  0.55993936  1
  H  H636  1  0.22262858  0.04203120  0.59220741  1
  C  C637  1  0.24866996  0.49791057  0.54280131  1
  H  H638  1  0.00105019  0.23203798  0.59835465  1
  C  C639  1  0.19761962  0.00487708  0.56797638  1
  C  C640  1  0.04429804  0.49557393  0.52815724  1
  C  C641  1  0.09927258  0.49365409  0.57594373  1
  C  C642  1  0.05825193  0.49579958  0.60913259  1
  C  C643  1  0.25096675  0.25731278  0.52464723  1
  H  H644  1  0.49474411  0.29351823  0.61423770  1
  H  H645  1  0.25238984  0.42661711  0.55776436  1
  C  C646  1  0.25617491  0.32020231  0.52321657  1
  O  O647  1  0.27271042  0.16458481  0.51330567  1
  O  O648  1  0.38866172  0.01913007  0.50096381  1
  H  H649  1  0.44241311  0.04061052  0.51790910  1
  C  C650  1  0.28880272  0.03155334  0.61401379  1
  C  C651  1  0.40976240  0.11728919  0.56275203  1
  C  C652  1  0.36419111  0.13346232  0.56099737  1
  C  C653  1  0.43664884  0.10026143  0.54688985  1
  C  C654  1  0.34151328  0.14930960  0.57564425  1
  C  C655  1  0.43228816  0.11119851  0.57907462  1
  H  H656  1  0.34834087  0.13318217  0.54754649  1
  C  C657  1  0.43646121  0.39275787  0.51170636  1
  H  H658  1  0.30839965  0.16106101  0.57528591  1
  H  H659  1  0.41692884  0.43219614  0.50830138  1
  H  H660  1  0.42261687  0.12549356  0.53551578  1
  C  C661  1  0.47003448  0.39598923  0.52528177  1
  H  H662  1  0.28490880  0.33735123  0.51523263  1
  C  C663  1  0.46842865  0.45311676  0.53572511  1
  C  C664  1  0.46201677  0.24704561  0.57289820  1
  H  H665  1  0.47297111  0.20213611  0.57256982  1
  C  C666  1  0.42002755  0.26260281  0.57791040  1
  H  H667  1  0.43725681  0.45331206  0.54332015  1
  C  C668  1  0.44204144  0.36814472  0.57475264  1
  C  C669  1  0.41110766  0.32418986  0.57834264  1
  H  H670  1  0.43217785  0.41570166  0.57368406  1
  H  H671  1  0.39330459  0.23083215  0.58162745  1
  Zn  Zn672  1  0.29728330  0.43839613  0.57964787  1
  H  H673  1  0.46756962  0.09293451  0.58011515  1
  C  C674  1  0.36455703  0.34020530  0.58310384  1
  O  O675  1  0.33454166  0.30263525  0.58496254  1
  C  C676  1  0.36503249  0.14706223  0.59209933  1
  C  C677  1  0.40868213  0.12465401  0.59412988  1
  H  H678  1  0.28899033  0.17187572  0.59749167  1
  O  O679  1  0.35836518  0.39398532  0.58497286  1
  H  H680  1  0.42452233  0.11967915  0.60684067  1
  C  C681  1  0.34434024  0.16999688  0.60823915  1
  O  O682  1  0.29341011  0.18919687  0.60932286  1
  Zn  Zn683  1  0.29252155  0.28446898  0.60684067  1
  O  O684  1  0.36321313  0.17868461  0.62138850  1
  C  C685  1  0.46221094  0.28993777  0.50612427  1
  H  H686  1  0.30449793  0.07700146  0.61038568  1
  H  H687  1  0.35592619  0.02165889  0.58761078  1
  H  H688  1  0.43863990  0.04980844  0.54440057  1
  C  C689  1  0.27976693  0.21900515  0.51415851  1
  C  C690  1  0.48596986  0.35374369  0.57113607  1
  C  C691  1  0.48968875  0.29259942  0.52070071  1
  C  C692  1  0.49394919  0.29177513  0.56955823  1
  C  C693  1  0.47746481  0.04248600  0.51700000  1
  O  O694  1  0.48765130  0.10551838  0.54334207  1
  C  C695  1  0.43374654  0.33931964  0.50196616  1
  O  O696  1  0.31139930  0.24583798  0.50644307  1
  O  O697  1  0.27753407  0.44896658  0.55214068  1
  O  O698  1  0.33748062  0.38564245  0.50570672  1
  C  C699  1  0.49290447  0.34418896  0.53052431  1
  C  C700  1  0.36274827  0.01269056  0.51218277  1
  H  H701  1  0.26819887  0.49854718  0.50148967  1
  H  H702  1  0.46800496  0.49244574  0.52741317  1
  O  O703  1  0.26079537  0.04298168  0.62453097  1
  O  O704  1  0.31156425  0.49778316  0.61613214  1
  O  O705  1  0.33672196  0.00559477  0.52350217  1
  C  C706  1  0.49632587  0.01414875  0.50276036  1
  H  H707  1  0.33305763  0.49820376  0.53779878  1
  O  O708  1  0.48503804  0.19343272  0.50056525  1
  C  C709  1  0.32222431  0.42899709  0.50006589  1
  C  C710  1  0.14993453  0.21643082  0.62564376  1
  H  H711  1  0.03183769  0.06486747  0.62865503  1
  H  H712  1  0.21907098  0.18903748  0.62954279  1
  C  C713  1  0.09344607  0.42268468  0.62795055  1
  H  H714  1  0.10130972  0.00171562  0.68197158  1
  C  C715  1  0.02895591  0.00178359  0.70035190  1
  C  C716  1  0.19002458  0.35388126  0.62722065  1
  H  H717  1  0.01393905  0.45432633  0.63890561  1
  H  H718  1  0.06463727  0.33971322  0.63015761  1
  C  C719  1  0.00723050  0.02777668  0.63064354  1
  C  C720  1  0.06547274  0.23960979  0.62720991  1
  C  C721  1  0.00002614  0.41748033  0.72965704  1
  C  C722  1  0.18878914  0.20306506  0.63556447  1
  C  C723  1  0.11108324  0.23355533  0.63384622  1
  H  H724  1  0.12075694  0.41146440  0.63767529  1
  C  C725  1  0.06164635  0.48952270  0.72835609  1
  H  H726  1  0.12145816  0.48382338  0.74459183  1
  H  H727  1  0.00953064  0.34003825  0.69019758  1
  H  H728  1  0.01267270  0.24940153  0.72775369  1
  C  C729  1  0.21141686  0.46700225  0.63879517  1
  C  C730  1  0.18811311  0.21805453  0.65331106  1
  H  H731  1  0.10869017  0.09531077  0.62915057  1
  C  C732  1  0.03929106  0.25892541  0.64096773  1
  C  C733  1  0.11188656  0.24958497  0.65278411  1
  C  C734  1  0.19928363  0.42234724  0.65132564  1
  C  C735  1  0.18462168  0.36671099  0.64462501  1
  H  H736  1  0.17046347  0.33434711  0.65387795  1
  H  H737  1  0.05976160  0.42104036  0.65449734  1
  O  O738  1  0.12998920  0.06463674  0.63232824  1
  C  C739  1  0.06792054  0.27290668  0.65524923  1
  C  C740  1  0.15057158  0.23830987  0.66270339  1
  C  C741  1  0.11387475  0.05128845  0.64968985  1
  O  O742  1  0.08140493  0.07486196  0.65490897  1
  H  H743  1  0.05709757  0.29367896  0.66792863  1
  H  H744  1  0.15299582  0.24434282  0.67686146  1
  H  H745  1  0.12005115  0.36625371  0.67261799  1
  C  C746  1  0.06175299  0.42357454  0.66868825  1
  H  H747  1  0.07399386  0.05442027  0.71626817  1
  H  H748  1  0.17918965  0.46532083  0.67524622  1
  H  H749  1  0.02558861  0.22911228  0.69704325  1
  C  C750  1  0.20235236  0.43070437  0.67112597  1
  C  C751  1  0.09374299  0.39175844  0.67888622  1
  H  H752  1  0.17959876  0.05391437  0.68746286  1
  O  O753  1  0.20033668  0.37832485  0.68368240  1
  C  C754  1  0.02683120  0.45178340  0.67752008  1
  H  H755  1  0.10492040  0.24058924  0.68424700  1
  H  H756  1  0.18752646  0.27779570  0.69155171  1
  C  C757  1  0.09657596  0.24975829  0.69813034  1
  C  C758  1  0.02463600  0.45443335  0.69616033  1
  H  H759  1  0.13480827  0.14701480  0.69373464  1
  C  C760  1  0.05088382  0.42160784  0.72536462  1
  C  C761  1  0.19042572  0.39863730  0.74064482  1
  C  C762  1  0.19957132  0.44298233  0.72771844  1
  C  C763  1  0.05836850  0.42081400  0.70576400  1
  C  C764  1  0.17969289  0.27938679  0.70561981  1
  C  C765  1  0.05336316  0.24451193  0.70505150  1
  C  C766  1  0.12882000  0.26971040  0.70988926  1
  C  C767  1  0.12237044  0.27777114  0.72815168  1
  C  C768  1  0.16436342  0.28619600  0.73927010  1
  C  C769  1  0.20910000  0.23810235  0.71600718  1
  C  C770  1  0.09219147  0.38941862  0.69699132  1
  H  H771  1  0.11618618  0.35940361  0.70392216  1
  H  H772  1  0.06910547  0.38711363  0.73200876  1
  C  C773  1  0.20137598  0.44316738  0.70973071  1
  C  C774  1  0.18640405  0.34234563  0.71303959  1
  C  C775  1  0.19661348  0.38964725  0.70061896  1
  C  C776  1  0.18207215  0.34618709  0.73104150  1
  C  C777  1  0.19991564  0.23860843  0.73441042  1
  C  C778  1  0.04563025  0.25640269  0.72275548  1
  C  C779  1  0.14335921  0.11489122  0.70455480  1
  C  C780  1  0.07880897  0.27133549  0.73482394  1
  C  C781  1  0.16994325  0.06462784  0.70079142  1
  C  C782  1  0.18490349  0.03128777  0.71554261  1
  H  H783  1  0.20731005  0.48530004  0.70210805  1
  C  C784  1  0.12735387  0.13004113  0.72128294  1
  C  C785  1  0.16514326  0.04052499  0.73210246  1
  H  H786  1  0.18745427  0.00896935  0.63683043  1
  C  C787  1  0.23360292  0.19191210  0.70696587  1
  H  H788  1  0.22021647  0.21330167  0.65978911  1
  C  C789  1  0.14279925  0.00905773  0.65909379  1
  H  H790  1  0.10604229  0.16901676  0.72350216  1
  H  H791  1  0.23233598  0.45417647  0.67632306  1
  H  H792  1  0.20727051  0.48881314  0.73089662  1
  C  C793  1  0.21785945  0.19118488  0.74386332  1
  H  H794  1  0.24383423  0.26461684  0.68253547  1
  C  C795  1  0.13675417  0.08963458  0.73516498  1
  C  C796  1  0.06498366  0.00925497  0.71140518  1
  C  C797  1  0.24612398  0.14965956  0.73560629  1
  H  H798  1  0.23310951  0.19255664  0.69233196  1
  C  C799  1  0.23743541  0.00334183  0.74339538  1
  H  H800  1  0.12080691  0.09775130  0.74859728  1
  H  H801  1  0.07159556  0.27435427  0.74910217  1
  H  H802  1  0.26499080  0.12063954  0.74404025  1
  C  C803  1  0.49069905  0.44284037  0.62671274  1
  C  C804  1  0.42151208  0.33108763  0.74826227  1
  H  H805  1  0.47438905  0.47257972  0.63583873  1
  C  C806  1  0.48993152  0.17626904  0.71067255  1
  H  H807  1  0.30533973  0.22195336  0.71183951  1
  H  H808  1  0.31492321  0.40933194  0.68558753  1
  C  C809  1  0.48584951  0.38001962  0.62743595  1
  C  C810  1  0.30163106  0.00160809  0.72266175  1
  H  H811  1  0.43660350  0.45364840  0.69188874  1
  C  C812  1  0.30225144  0.45840026  0.72795466  1
  H  H813  1  0.28783157  0.22930964  0.73994392  1
  C  C814  1  0.49784905  0.20099214  0.74136625  1
  O  O815  1  0.41886890  0.49217287  0.65179159  1
  C  C816  1  0.44193237  0.36523323  0.70394408  1
  O  O817  1  0.43441453  0.01666155  0.71699758  1
  H  H818  1  0.34893743  0.42202162  0.74721601  1
  H  H819  1  0.38462681  0.31479380  0.69374479  1
  H  H820  1  0.42999288  0.34276072  0.73383701  1
  C  C821  1  0.32100238  0.33094841  0.65764824  1
  C  C822  1  0.42997738  0.42412241  0.70257954  1
  H  H823  1  0.27374712  0.11063461  0.71064363  1
  H  H824  1  0.25062107  0.30058676  0.65433580  1
  H  H825  1  0.48310968  0.28412340  0.72901292  1
  H  H826  1  0.46981732  0.35992362  0.63831797  1
  C  C827  1  0.47976841  0.25838382  0.74256055  1
  C  C828  1  0.29551055  0.49883556  0.69356246  1
  O  O829  1  0.49502460  0.15625062  0.67684791  1
  C  C830  1  0.33063732  0.01606449  0.73663038  1
  C  C831  1  0.25252996  0.14581307  0.71706971  1
  O  O832  1  0.45042836  0.31396756  0.70664000  1
  H  H833  1  0.38916209  0.35655815  0.66519852  1
  H  H834  1  0.45122174  0.45137147  0.74078974  1
  C  C835  1  0.30842624  0.44146655  0.69622662  1
  O  O836  1  0.30361705  0.48105391  0.66204119  1
  C  C837  1  0.30993683  0.42028462  0.71337313  1
  H  H838  1  0.36623117  0.02432251  0.73483172  1
  C  C839  1  0.31511464  0.28313816  0.69074960  1
  O  O840  1  0.35671420  0.38735073  0.63616359  1
  C  C841  1  0.27817968  0.28209160  0.67929494  1
  O  O842  1  0.29313771  0.34555560  0.62911786  1
  C  C843  1  0.35456593  0.31094430  0.68537759  1
  Zn  Zn844  1  0.34692792  0.48680589  0.64117453  1
  H  H845  1  0.32693250  0.37581254  0.71601569  1
  H  H846  1  0.27813451  0.29273812  0.71540093  1
  C  C847  1  0.28077823  0.30201286  0.66251045  1
  Zn  Zn848  1  0.46322963  0.08969063  0.70859842  1
  C  C849  1  0.30838513  0.26929277  0.70983792  1
  C  C850  1  0.35808402  0.33445330  0.66886704  1
  C  C851  1  0.31480066  0.44122422  0.74632476  1
  O  O852  1  0.34816790  0.29269873  0.72218347  1
  H  H853  1  0.40935701  0.43956579  0.71338016  1
  C  C854  1  0.32377655  0.35522767  0.63976191  1
  C  C855  1  0.34557594  0.28413870  0.73924167  1
  C  C856  1  0.31218274  0.24977175  0.74833233  1
  C  C857  1  0.49366252  0.14982164  0.69205771  1
  H  H858  1  0.47103665  0.22111246  0.71138229  1
  C  C859  1  0.07770499  0.33103438  0.79482493  1
  H  H860  1  0.08742179  0.30078475  0.80558447  1
  C  C861  1  0.03854628  0.36770862  0.79419624  1
  H  H862  1  0.13826417  0.31512890  0.77932686  1
  C  C863  1  0.10622354  0.33699191  0.78005550  1
  C  C864  1  0.03054072  0.41132425  0.78156344  1
  C  C865  1  0.06057676  0.42341419  0.76798316  1
  H  H866  1  0.15544315  0.14662219  0.80179521  1
  C  C867  1  0.16419660  0.18087119  0.81114055  1
  C  C868  1  0.18492691  0.23608240  0.80163366  1
  C  C869  1  0.19073863  0.24319408  0.78359567  1
  H  H870  1  0.17418433  0.21481828  0.77384489  1
  C  C871  1  0.20230782  0.28152335  0.81248818  1
  C  C872  1  0.09794028  0.38285630  0.76783329  1
  C  C873  1  0.12346435  0.20877358  0.82073408  1
  O  O874  1  0.06561166  0.15558432  0.80548198  1
  C  C875  1  0.07825134  0.19645541  0.81705207  1
  H  H876  1  0.20394427  0.05193651  0.78610624  1
  C  C877  1  0.19517867  0.16068093  0.82618821  1
  H  H878  1  0.20747428  0.06642833  0.82125654  1
  O  O879  1  0.18935711  0.40112894  0.75786337  1
  C  C880  1  0.03438507  0.06276007  0.78277186  1
  H  H881  1  0.07011788  0.06892977  0.78502466  1
  H  H882  1  0.21379217  0.18942030  0.75844323  1
  C  C883  1  0.20324755  0.45961134  0.76588371  1
  H  H884  1  0.10677924  0.38234476  0.82911691  1
  C  C885  1  0.04823731  0.23191007  0.82672593  1
  C  C886  1  0.21452581  0.10587997  0.82934436  1
  C  C887  1  0.13863680  0.25333048  0.83152584  1
  C  C888  1  0.18969682  0.26797469  0.83207661  1
  C  C889  1  0.09853007  0.42492333  0.83446065  1
  H  H890  1  0.19638976  0.30756295  0.84015554  1
  C  C891  1  0.20996787  0.20743879  0.83704943  1
  C  C892  1  0.10829202  0.28706583  0.84164308  1
  C  C893  1  0.06404536  0.27292956  0.83868680  1
  O  O894  1  0.12271210  0.32102305  0.85506814  1
  C  C895  1  0.09119545  0.43086174  0.85299384  1
  C  C896  1  0.09288719  0.36956994  0.86138202  1
  H  H897  1  0.03712424  0.29400930  0.84603958  1
  Zn  Zn898  1  0.02869434  0.05763453  0.84537231  1
  C  C899  1  0.08414359  0.09152232  0.85598913  1
  O  O900  1  0.11977340  0.06997179  0.85476278  1
  C  C901  1  0.06113430  0.14853653  0.86190815  1
  C  C902  1  0.23449115  0.06936598  0.79215073  1
  C  C903  1  0.21393547  0.29327209  0.77731703  1
  H  H904  1  0.21553356  0.30188480  0.76314859  1
  C  C905  1  0.23182912  0.32512161  0.80677657  1
  C  C906  1  0.01836085  0.01480786  0.77294912  1
  H  H907  1  0.22032652  0.16090457  0.78854435  1
  H  H908  1  0.15822848  0.29305039  0.75323221  1
  H  H909  1  0.12115412  0.38417044  0.75770983  1
  C  C910  1  0.21440453  0.47032962  0.78531829  1
  C  C911  1  0.01346318  0.16517327  0.86072374  1
  H  H912  1  0.05800345  0.34811071  0.86347069  1
  C  C913  1  0.23905304  0.33049836  0.78809172  1
  C  C914  1  0.24694966  0.10297246  0.84295345  1
  C  C915  1  0.23742370  0.20532134  0.85216123  1
  H  H916  1  0.05737769  0.45978736  0.75866171  1
  C  C917  1  0.09318799  0.47421484  0.82399704  1
  H  H918  1  0.09450930  0.47104544  0.80969441  1
  C  C919  1  0.01608046  0.15019138  0.80154029  1
  H  H920  1  0.01277776  0.22706928  0.82613964  1
  C  C921  1  0.09115645  0.19161575  0.87025599  1
  H  H922  1  0.23495500  0.47081008  0.75851833  1
  C  C923  1  0.18904337  0.43755833  0.79773251  1
  H  H924  1  0.16193207  0.40662537  0.79379146  1
  C  C925  1  0.20242634  0.44228152  0.81516055  1
  H  H926  1  0.12797414  0.18589117  0.86937135  1
  C  C927  1  0.08426757  0.48568969  0.86068258  1
  H  H928  1  0.18649271  0.41787636  0.82554792  1
  O  O929  1  0.23491160  0.45744437  0.85098906  1
  C  C930  1  0.23676160  0.48010635  0.81978215  1
  H  H931  1  0.17867538  0.49383964  0.76083326  1
  H  H932  1  0.24880512  0.35552182  0.81567892  1
  C  C933  1  0.24365950  0.12964484  0.79400995  1
  H  H934  1  0.00896421  0.19700492  0.79564147  1
  C  C935  1  0.00070694  0.10027801  0.78971680  1
  H  H936  1  0.17575903  0.00048041  0.75867172  1
  H  H937  1  0.23935486  0.41419977  0.87201572  1
  H  H938  1  0.10038136  0.01245389  0.87386534  1
  H  H939  1  0.01618360  0.28121431  0.76959828  1
  H  H940  1  0.24186927  0.24551313  0.86102357  1
  H  H941  1  0.10456783  0.38398157  0.87453672  1
  H  H942  1  0.00502999  0.32464191  0.81708961  1
  H  H943  1  0.00227693  0.16945093  0.76933592  1
  C  C944  1  0.00105623  0.36389146  0.80810643  1
  O  O945  1  0.01106612  0.33964615  0.75016510  1
  C  C946  1  0.49203355  0.00629648  0.79080666  1
  O  O947  1  0.32383460  0.49384359  0.76127954  1
  C  C948  1  0.25200440  0.48544273  0.83907971  1
  H  H949  1  0.26395704  0.06075609  0.84562583  1
  C  C950  1  0.25588070  0.14965598  0.85492089  1
  H  H951  1  0.26429235  0.36092370  0.78321757  1
  C  C952  1  0.26295711  0.02725399  0.80093127  1
  H  H953  1  0.26361765  0.24225035  0.79865045  1
  H  H954  1  0.25356851  0.01885302  0.77139350  1
  H  H955  1  0.39164639  0.01046079  0.82402605  1
  H  H956  1  0.28061533  0.20782298  0.77010178  1
  H  H957  1  0.29448515  0.22516836  0.81711032  1
  C  C958  1  0.28446647  0.14912628  0.80176379  1
  C  C959  1  0.29309441  0.21721918  0.80270971  1
  O  O960  1  0.33150256  0.25498071  0.79584032  1
  H  H961  1  0.34333290  0.12443302  0.81754548  1
  C  C962  1  0.33735784  0.26110919  0.77873997  1
  C  C963  1  0.41153742  0.31001938  0.78297005  1
  H  H964  1  0.40763598  0.30480441  0.79736134  1
  C  C965  1  0.42540902  0.37452688  0.77836403  1
  C  C966  1  0.43298207  0.41762402  0.79147230  1
  H  H967  1  0.44057832  0.20401102  0.79414303  1
  C  C968  1  0.45549472  0.21280606  0.78161292  1
  H  H969  1  0.46301789  0.11833573  0.79793269  1
  C  C970  1  0.31187813  0.10914407  0.81095949  1
  H  H971  1  0.43397079  0.40488975  0.80518622  1
  C  C972  1  0.37330762  0.29245017  0.77072946  1
  C  C973  1  0.44530855  0.26669485  0.77323556  1
  C  C974  1  0.47763004  0.16478830  0.77378436  1
  C  C975  1  0.30075969  0.04744463  0.81013662  1
  C  C976  1  0.30934421  0.23722970  0.76593046  1
  C  C977  1  0.43180332  0.38570053  0.76011333  1
  C  C978  1  0.47776995  0.11381231  0.78462403  1
  C  C979  1  0.31196847  0.02355199  0.75377974  1
  H  H980  1  0.33352197  0.03419520  0.76529837  1
  C  C981  1  0.45202843  0.20592962  0.83053679  1
  H  H982  1  0.36170230  0.26266208  0.82211277  1
  O  O983  1  0.39739934  0.32704977  0.83325183  1
  C  C984  1  0.38005585  0.26385943  0.83430605  1
  C  C985  1  0.40928311  0.20870076  0.83763766  1
  H  H986  1  0.46585030  0.12017883  0.84211929  1
  H  H987  1  0.35501854  0.26565313  0.84543056  1
  C  C988  1  0.38914723  0.16210467  0.84671854  1
  H  H989  1  0.35943018  0.17739606  0.85323278  1
  O  O990  1  0.39658767  0.10866437  0.85099715  1
  C  C991  1  0.35898174  0.09150945  0.86487407  1
  C  C992  1  0.33103482  0.04206421  0.86590280  1
  C  C993  1  0.36671613  0.36726259  0.82838806  1
  C  C994  1  0.33845935  0.40028689  0.82431263  1
  C  C995  1  0.47923287  0.15679907  0.83378501  1
  H  H996  1  0.46525164  0.24544226  0.82328613  1
  C  C997  1  0.26615726  0.01314369  0.75761661  1
  H  H998  1  0.31016322  0.43416663  0.82141549  1
  C  C999  1  0.48199104  0.03362678  0.85091434  1
  O  O1000  1  0.45780991  0.01435552  0.83979175  1
  C  C1001  1  0.45460134  0.28526955  0.75593308  1
  C  C1002  1  0.37580738  0.30202384  0.75273217  1
  H  H1003  1  0.33370022  0.00731982  0.85532947  1
  H  H1004  1  0.27928015  0.14493843  0.86611023  1
  C  C1005  1  0.49539223  0.05942404  0.77847525  1
  C  C1006  1  0.49407574  0.16320714  0.75539395  1
  C  C1007  1  0.44613257  0.44122080  0.75495317  1
  C  C1008  1  0.48507493  0.04771571  0.86910981  1
  H  H1009  1  0.41270721  0.19085574  0.87345729  1
  C  C1010  1  0.44457381  0.47626078  0.78595799  1
  H  H1011  1  0.30216458  0.34182403  0.87094545  1
  H  H1012  1  0.49804114  0.43790230  0.84179555  1
  C  C1013  1  0.45113117  0.48300372  0.76829826  1
  H  H1014  1  0.28804388  0.41572983  0.75248782  1
  H  H1015  1  0.41571968  0.01929887  0.87400115  1
  O  O1016  1  0.44535904  0.36615693  0.87285354  1
  H  H1017  1  0.01356839  0.38805200  0.99189232  1
  C  C1018  1  0.23369437  0.00851088  0.90573447  1
  H  H1019  1  0.07840323  0.48596335  0.87518058  1
  C  C1020  1  0.06803040  0.48062393  0.98720103  1
  H  H1021  1  0.00263769  0.17205027  0.93531552  1
  O  O1022  1  0.14386613  0.47830989  0.89534751  1
  C  C1023  1  0.23955173  0.37157890  0.88075638  1
  O  O1024  1  0.01718789  0.11906801  0.98513052  1
  O  O1025  1  0.02438190  0.27650724  0.99038736  1
  C  C1026  1  0.02761970  0.25679933  0.87660889  1
  H  H1027  1  0.05317228  0.27032025  0.93090248  1
  H  H1028  1  0.02663136  0.42068253  0.94864261  1
  C  C1029  1  0.07499756  0.24441357  0.87638050  1
  C  C1030  1  0.01410057  0.41598491  0.89098040  1
  H  H1031  1  0.09929143  0.27802775  0.88076975  1
  H  H1032  1  0.06804608  0.45689024  0.90458527  1
  C  C1033  1  0.03642367  0.46537054  0.89837809  1
  C  C1034  1  0.20438693  0.35558232  0.89159658  1
  O  O1035  1  0.03348739  0.36502418  0.89162265  1
  C  C1036  1  0.17328999  0.33572990  0.90306740  1
  C  C1037  1  0.16103584  0.27329982  0.90313893  1
  H  H1038  1  0.15647167  0.36374822  0.91389446  1
  C  C1039  1  0.15299277  0.22059249  0.90193495  1
  H  H1040  1  0.05698767  0.16136137  0.91161040  1
  O  O1041  1  0.14656727  0.16292952  0.89977983  1
  H  H1042  1  0.14536322  0.07844960  0.90919372  1
  C  C1043  1  0.22334536  0.46928141  0.91894284  1
  H  H1044  1  0.06512526  0.37804973  0.92544821  1
  C  C1045  1  0.14873191  0.12006510  0.91668769  1
  C  C1046  1  0.02996623  0.45312761  0.95991662  1
  H  H1047  1  0.18452133  0.12951940  0.92032116  1
  C  C1048  1  0.06620602  0.14912708  0.92571011  1
  C  C1049  1  0.03529777  0.15741518  0.93907664  1
  C  C1050  1  0.15033264  0.47663785  0.95382298  1
  H  H1051  1  0.14874153  0.08399816  0.94944314  1
  C  C1052  1  0.11107345  0.12836374  0.92955332  1
  C  C1053  1  0.11724552  0.10756184  0.94677601  1
  C  C1054  1  0.08043445  0.29304242  0.93781392  1
  C  C1055  1  0.09013875  0.35235044  0.93312402  1
  C  C1056  1  0.11154593  0.25629468  0.94590061  1
  H  H1057  1  0.10584115  0.20668552  0.94784260  1
  C  C1058  1  0.12898158  0.38092832  0.93962837  1
  C  C1059  1  0.14876097  0.28513876  0.95352714  1
  C  C1060  1  0.08708423  0.11220633  0.96058703  1
  C  C1061  1  0.15699707  0.34628771  0.94990196  1
  C  C1062  1  0.04513117  0.13918219  0.95709318  1
  H  H1063  1  0.09301328  0.08840391  0.97293174  1
  C  C1064  1  0.17526325  0.44186913  0.96514951  1
  H  H1065  1  0.17348894  0.25951128  0.96091173  1
  C  C1066  1  0.19777898  0.43996684  0.93140112  1
  C  C1067  1  0.19589398  0.38022166  0.95911580  1
  H  H1068  1  0.21579564  0.35480780  0.96830579  1
  C  C1069  1  0.18719581  0.45256835  0.98310702  1
  C  C1070  1  0.14770004  0.44451260  0.93568603  1
  C  C1071  1  0.22030442  0.39915030  0.94226999  1
  H  H1072  1  0.12974621  0.46849592  0.92521856  1
  C  C1073  1  0.06085956  0.44085059  0.97302460  1
  H  H1074  1  0.08280766  0.40172768  0.97142715  1
  H  H1075  1  0.15022879  0.30258215  0.98445284  1
  H  H1076  1  0.10225124  0.21801174  0.98725011  1
  H  H1077  1  0.22644841  0.04942342  0.99628367  1
  C  C1078  1  0.22871011  0.07668204  0.98450143  1
  C  C1079  1  0.23473030  0.13767440  0.98549205  1
  H  H1080  1  0.23313321  0.16049624  0.99767374  1
  C  C1081  1  0.23187713  0.05226940  0.96742165  1
  C  C1082  1  0.01178774  0.14363818  0.97116576  1
  C  C1083  1  0.00737436  0.31454495  0.88299021  1
  O  O1084  1  0.20630003  0.41510425  0.99498557  1
  H  H1085  1  0.24499140  0.26716001  0.89633265  1
  H  H1086  1  0.23444334  0.26722410  0.97854733  1
  C  C1087  1  0.15842604  0.26789454  0.99319984  1
  C  C1088  1  0.13136240  0.21676949  0.99541875  1
  C  C1089  1  0.16122455  0.01083177  0.88760268  1
  C  C1090  1  0.24102741  0.17401884  0.97025616  1
  H  H1091  1  0.17788367  0.02855943  0.87583334  1
  C  C1092  1  0.23852712  0.08606453  0.95179611  1
  H  H1093  1  0.24409089  0.06314261  0.93932561  1
  H  H1094  1  0.24913737  0.17408043  0.94273782  1
  C  C1095  1  0.24191532  0.14654568  0.95373236  1
  H  H1096  1  0.09237935  0.47296009  0.99775473  1
  O  O1097  1  0.42141207  0.10780316  0.98656946  1
  C  C1098  1  0.49183469  0.06037691  0.90604517  1
  C  C1099  1  0.35361715  0.18333272  0.91224418  1
  O  O1100  1  0.37691860  0.47443814  0.98781349  1
  H  H1101  1  0.45798955  0.49106683  0.88530357  1
  O  O1102  1  0.48881845  0.03391312  0.93819826  1
  C  C1103  1  0.31666428  0.12649543  0.89017013  1
  H  H1104  1  0.35247659  0.07399552  0.94320106  1
  C  C1105  1  0.41579411  0.41566106  0.95594466  1
  H  H1106  1  0.36589883  0.09024205  0.90909641  1
  O  O1107  1  0.25304101  0.07142852  0.90366182  1
  C  C1108  1  0.29849775  0.03689329  0.87938475  1
  C  C1109  1  0.44795886  0.03180902  0.88021539  1
  H  H1110  1  0.27835150  0.34891008  0.95033292  1
  C  C1111  1  0.39385612  0.18443829  0.90241319  1
  O  O1112  1  0.30087572  0.25726616  0.96362113  1
  C  C1113  1  0.37484436  0.39282467  0.96713200  1
  H  H1114  1  0.46533853  0.17268430  0.90036237  1
  H  H1115  1  0.39982380  0.16158186  0.95208898  1
  H  H1116  1  0.47997663  0.23305725  0.99295246  1
  C  C1117  1  0.34957737  0.03654626  0.93354470  1
  C  C1118  1  0.35703309  0.33950387  0.96188182  1
  C  C1119  1  0.37170430  0.37789478  0.90209022  1
  Zn  Zn1120  1  0.48444991  0.35950205  0.90904277  1
  H  H1121  1  0.32507701  0.17900622  0.93885668  1
  H  H1122  1  0.42708105  0.46277093  0.95885152  1
  C  C1123  1  0.32190934  0.39290978  0.98918456  1
  C  C1124  1  0.35804601  0.42309127  0.98174598  1
  H  H1125  1  0.36221379  0.00865121  0.89043256  1
  H  H1126  1  0.47257523  0.16962728  0.93398316  1
  C  C1127  1  0.45185163  0.03523324  0.89832864  1
  H  H1128  1  0.37538744  0.25860522  0.94410073  1
  C  C1129  1  0.49320259  0.38244440  0.96636870  1
  C  C1130  1  0.26610206  0.38491965  0.94152034  1
  C  C1131  1  0.40168322  0.41162629  0.93605103  1
  C  C1132  1  0.46132097  0.26242488  0.95723859  1
  C  C1133  1  0.27465810  0.33117543  0.87949199  1
  H  H1134  1  0.37753520  0.47226702  0.89705975  1
  C  C1135  1  0.35372696  0.13076664  0.87874404  1
  C  C1136  1  0.38733274  0.35357420  0.93249921  1
  H  H1137  1  0.29137603  0.46417817  0.95787963  1
  C  C1138  1  0.47217929  0.45295097  0.89219301  1
  H  H1139  1  0.41564383  0.33878580  0.98940505  1
  C  C1140  1  0.43844128  0.16722926  0.92779807  1
  C  C1141  1  0.40029555  0.45570452  0.92320117  1
  H  H1142  1  0.45642028  0.02414316  0.93363782  1
  C  C1143  1  0.32113139  0.30598690  0.96978240  1
  C  C1144  1  0.38537863  0.30650534  0.94750748  1
  C  C1145  1  0.31147674  0.23883814  0.88922402  1
  H  H1146  1  0.28783970  0.48442493  0.90832585  1
  H  H1147  1  0.35966298  0.36742998  0.88969607  1
  H  H1148  1  0.32719910  0.40110192  0.92732164  1
  C  C1149  1  0.26136892  0.23300171  0.97519543  1
  C  C1150  1  0.49978282  0.46966484  0.90730740  1
  C  C1151  1  0.39834518  0.16822905  0.93803397  1
  C  C1152  1  0.38392533  0.43756231  0.90656012  1
  C  C1153  1  0.35603513  0.17510100  0.93110832  1
  C  C1154  1  0.28546489  0.07818280  0.89157498  1
  H  H1155  1  0.27640165  0.32025584  0.99114562  1
  C  C1156  1  0.37595553  0.33408839  0.91524714  1
  C  C1157  1  0.35015139  0.23880323  0.87857245  1
  C  C1158  1  0.43268642  0.31106717  0.95477803  1
  H  H1159  1  0.28276563  0.22911481  0.98798738  1
  C  C1160  1  0.45484581  0.11927563  0.99346276  1
  C  C1161  1  0.31030710  0.18054712  0.90180061  1
  C  C1162  1  0.35994865  0.04622928  0.91575830  1
  C  C1163  1  0.43660016  0.17546923  0.90946901  1
  H  H1164  1  0.42547489  0.01903734  0.90717230  1
  C  C1165  1  0.26933113  0.45469225  0.91784364  1
  H  H1166  1  0.36163957  0.24023457  0.99029520  1
  H  H1167  1  0.45397150  0.21579309  0.95366982  1
  C  C1168  1  0.27411391  0.27898561  0.88867633  1
  H  H1169  1  0.37069633  0.28656944  0.91199330  1
  C  C1170  1  0.29221415  0.41617421  0.92927343  1
  C  C1171  1  0.45062027  0.36786873  0.95994321  1
  C  C1172  1  0.38286061  0.18675352  0.88185126  1
  C  C1173  1  0.30479601  0.33872538  0.98372812  1
  C  C1174  1  0.46323912  0.39369943  0.88400484  1
  H  H1175  1  0.28060107  0.18056151  0.91023244  1
  H  H1176  1  0.30359870  0.41447446  0.99968526  1
  C  C1177  1  0.10530751  0.77509995  0.05371386  1
  C  C1178  1  0.08102220  0.82215113  0.04380413  1
  C  C1179  1  0.06025117  0.79870151  0.02812651  1
  H  H1180  1  0.08300192  0.75558344  0.06366348  1
  H  H1181  1  0.13231582  0.79903028  0.06099493  1
  C  C1182  1  0.15225934  0.68344440  0.05325419  1
  O  O1183  1  0.12165603  0.71422422  0.04538510  1
  H  H1184  1  0.06069141  0.75009673  0.02478495  1
  C  C1185  1  0.16453182  0.62632453  0.04700393  1
  C  C1186  1  0.07792955  0.88395161  0.04843167  1
  H  H1187  1  0.09012990  0.90219537  0.06105378  1
  C  C1188  1  0.13326989  0.53357781  0.03567398  1
  H  H1189  1  0.11513383  0.62419260  0.02552108  1
  C  C1190  1  0.14286303  0.59841531  0.03004247  1
  C  C1191  1  0.17827751  0.70200840  0.06783484  1
  H  H1192  1  0.16898769  0.74634870  0.07104878  1
  C  C1193  1  0.03750631  0.83777707  0.01686032  1
  C  C1194  1  0.05582352  0.92140128  0.03656391  1
  C  C1195  1  0.03833632  0.89946267  0.02064211  1
  C  C1196  1  0.19870336  0.59675362  0.05501615  1
  C  C1197  1  0.18107983  0.87266978  0.07041827  1
  H  H1198  1  0.16421220  0.86353684  0.05760626  1
  C  C1199  1  0.18481305  0.59606056  0.01753446  1
  C  C1200  1  0.22425838  0.61438279  0.06983949  1
  C  C1201  1  0.21233366  0.53943321  0.04459930  1
  H  H1202  1  0.18711705  0.77908569  0.04090070  1
  C  C1203  1  0.21124176  0.67091862  0.07583089  1
  H  H1204  1  0.06673095  0.52118942  0.02573592  1
  C  C1205  1  0.05847233  0.64153134  0.07397975  1
  H  H1206  1  0.07454106  0.60109264  0.06864173  1
  H  H1207  1  0.06642966  0.57747048  0.01180858  1
  H  H1208  1  0.18530135  0.88734269  0.03450836  1
  C  C1209  1  0.08591466  0.67575934  0.08480996  1
  H  H1210  1  0.12140832  0.66484130  0.08723208  1
  C  C1211  1  0.02141627  0.74226667  0.09014606  1
  C  C1212  1  0.15878371  0.86959369  0.08649340  1
  H  H1213  1  0.12693133  0.84736186  0.08606836  1
  C  C1214  1  0.06735394  0.72812332  0.09260133  1
  O  O1215  1  0.07356473  0.81985532  0.10860866  1
  C  C1216  1  0.08831285  0.77392886  0.10374041  1
  C  C1217  1  0.17885341  0.89064455  0.10230290  1
  O  O1218  1  0.13435754  0.75998996  0.10855428  1
  H  H1219  1  0.13453133  0.71898389  0.10609429  1
  H  H1220  1  0.13157149  0.97646413  0.10291728  1
  H  H1221  1  0.16341369  0.88171452  0.11532544  1
  C  C1222  1  0.01329279  0.65698439  0.07074178  1
  C  C1223  1  0.22064921  0.56706248  0.02638337  1
  C  C1224  1  0.09542280  0.50008439  0.03253588  1
  C  C1225  1  0.16841097  0.50243136  0.04404491  1
  C  C1226  1  0.21869620  0.92334841  0.10028406  1
  C  C1227  1  0.21657830  0.85982341  0.03235165  1
  C  C1228  1  0.21738771  0.80067538  0.03675408  1
  H  H1229  1  0.23067759  0.68888793  0.08654126  1
  H  H1230  1  0.05504088  0.97009609  0.03867076  1
  C  C1231  1  0.01746562  0.94042703  0.00813695  1
  C  C1232  1  0.22452203  0.89863585  0.06936433  1
  H  H1233  1  0.01000299  0.78311052  0.09599076  1
  H  H1234  1  0.24168687  0.51382202  0.05009977  1
  C  C1235  1  0.18940356  0.62880952  0.00166848  1
  H  H1236  1  0.10357651  0.68648771  0.00697874  1
  O  O1237  1  0.02573078  0.51234453  0.09751631  1
  H  H1238  1  0.16909808  0.52421151  0.00018120  1
  H  H1239  1  0.01568475  0.82222437  0.00674850  1
  H  H1240  1  0.24174018  0.90196467  0.05695122  1
  C  C1241  1  0.24145671  0.92490786  0.08464873  1
  H  H1242  1  0.23069151  0.83261450  0.09425967  1
  H  H1243  1  0.23051958  0.67654179  0.04111311  1
  C  C1244  1  0.24525433  0.95885818  0.11461867  1
  O  O1245  1  0.00778240  0.60923370  0.03819711  1
  O  O1246  1  0.02151796  0.99584988  0.00940871  1
  C  C1247  1  0.04260003  0.58554811  0.00085800  1
  H  H1248  1  0.23459088  0.95224039  0.00454546  1
  O  O1249  1  0.25909447  0.58231960  0.07546252  1
  H  H1250  1  0.26971533  0.62490938  0.09984536  1
  C  C1251  1  0.25908129  0.80200605  0.09286352  1
  C  C1252  1  0.25500236  0.88881077  0.02559138  1
  C  C1253  1  0.26307003  0.56980473  0.01896611  1
  C  C1254  1  0.25812547  0.76862468  0.03316388  1
  C  C1255  1  0.26091894  0.70511756  0.03759347  1
  Zn  Zn1256  1  0.42609841  0.97359222  0.05489976  1
  C  C1257  1  0.25690266  0.94949639  0.01625248  1
  H  H1258  1  0.46055591  0.59512974  0.04935946  1
  H  H1259  1  0.26621714  0.79884874  0.06432427  1
  C  C1260  1  0.35550958  0.87980063  0.05340508  1
  H  H1261  1  0.40357036  0.60642996  0.02469705  1
  C  C1262  1  0.39021676  0.84636812  0.06317235  1
  C  C1263  1  0.36187701  0.93583038  0.04787656  1
  H  H1264  1  0.32301839  0.85619986  0.05180167  1
  C  C1265  1  0.44801697  0.55388077  0.04245473  1
  H  H1266  1  0.38813605  0.79792549  0.06725826  1
  C  C1267  1  0.29881969  0.79704783  0.02764070  1
  C  C1268  1  0.29718730  0.85878717  0.02377860  1
  H  H1269  1  0.32662475  0.76818319  0.02550345  1
  O  O1270  1  0.29197572  0.67335668  0.04052855  1
  H  H1271  1  0.30941261  0.95915791  0.07273152  1
  O  O1272  1  0.44025932  0.71352007  0.05244075  1
  H  H1273  1  0.33278693  0.73371326  0.06647319  1
  O  O1274  1  0.42704980  0.85906667  0.06766351  1
  C  C1275  1  0.41672229  0.56196702  0.02880668  1
  H  H1276  1  0.47102064  0.92641336  0.02930652  1
  H  H1277  1  0.38354411  0.91997139  0.08870962  1
  C  C1278  1  0.27846135  0.78348088  0.07690324  1
  H  H1279  1  0.38886938  0.62610102  0.08284766  1
  C  C1280  1  0.31717928  0.74749938  0.07825159  1
  H  H1281  1  0.44268128  0.54488210  0.09044255  1
  H  H1282  1  0.30115229  0.65351743  0.08073904  1
  C  C1283  1  0.28972694  0.95580646  0.08545557  1
  C  C1284  1  0.28994803  0.61258390  0.08823602  1
  C  C1285  1  0.27221617  0.77901826  0.10923964  1
  C  C1286  1  0.40857584  0.54545708  0.09647558  1
  C  C1287  1  0.37839676  0.58855813  0.09175463  1
  H  H1288  1  0.36314745  0.69654254  0.09388133  1
  C  C1289  1  0.33404738  0.72776631  0.09446785  1
  C  C1290  1  0.36106585  0.90499820  0.09944133  1
  H  H1291  1  0.34986868  0.82304043  0.10144671  1
  C  C1292  1  0.30630267  0.73728221  0.10913903  1
  C  C1293  1  0.31650853  0.92929302  0.10008180  1
  O  O1294  1  0.37368999  0.84780599  0.10582061  1
  C  C1295  1  0.33154585  0.58031567  0.09476423  1
  C  C1296  1  0.28983367  0.91837387  0.11580016  1
  C  C1297  1  0.47127108  0.72257954  0.04312506  1
  C  C1298  1  0.31700987  0.53003674  0.10420373  1
  H  H1299  1  0.29213192  0.55400158  0.02704848  1
  H  H1300  1  0.28618185  0.86949792  0.11792337  1
  Zn  Zn1301  1  0.34583641  0.95788102  0.12263589  1
  H  H1302  1  0.29079156  0.95638935  0.00967149  1
  H  H1303  1  0.28121893  0.52523876  0.10532876  1
  H  H1304  1  0.34582110  0.54250901  0.00439161  1
  H  H1305  1  0.46730824  0.75211656  0.03079524  1
  H  H1306  1  0.45406145  0.89810213  0.11766983  1
  C  C1307  1  0.49092207  0.90217408  0.11792271  1
  O  O1308  1  0.48944034  0.67589915  0.11851519  1
  O  O1309  1  0.48218733  0.77801546  0.12016401  1
  H  H1310  1  0.30807029  0.99377526  0.03592508  1
  C  C1311  1  0.34486115  0.98732194  0.04023081  1
  C  C1312  1  0.49885347  0.90029575  0.03467589  1
  C  C1313  1  0.40074611  0.50937069  0.02049254  1
  C  C1314  1  0.26759151  0.59658910  0.00235485  1
  C  C1315  1  0.36622157  0.50187510  0.00607637  1
  C  C1316  1  0.49602628  0.95973246  0.06006421  1
  H  H1317  1  0.32638496  0.87648243  0.01815975  1
  C  C1318  1  0.00691534  0.74863159  0.20339489  1
  H  H1319  1  0.01570647  0.65599322  0.21069372  1
  H  H1320  1  0.22258723  0.83012004  0.12716116  1
  H  H1321  1  0.03433598  0.56381363  0.12535073  1
  C  C1322  1  0.03606482  0.60930115  0.13051501  1
  H  H1323  1  0.02534990  0.92485554  0.23315088  1
  H  H1324  1  0.22580498  0.96157960  0.12750546  1
  C  C1325  1  0.01052894  0.85875416  0.20034354  1
  H  H1326  1  0.00925295  0.82140146  0.16162312  1
  H  H1327  1  0.16359610  0.75653614  0.13891948  1
  H  H1328  1  0.19511060  0.98139277  0.19089375  1
  H  H1329  1  0.13963841  0.65555704  0.14492358  1
  H  H1330  1  0.19297529  0.56909299  0.14158061  1
  H  H1331  1  0.00671520  0.59751490  0.16125851  1
  C  C1332  1  0.07299645  0.63170197  0.14035443  1
  H  H1333  1  0.09886883  0.60186666  0.14616663  1
  C  C1334  1  0.18741043  0.72125201  0.13797762  1
  C  C1335  1  0.17515845  0.66173132  0.14161211  1
  C  C1336  1  0.20511185  0.61436948  0.14017699  1
  O  O1337  1  0.15796421  0.97139208  0.16932739  1
  C  C1338  1  0.02486678  0.91272485  0.15352639  1
  C  C1339  1  0.07578628  0.97500157  0.14309848  1
  C  C1340  1  0.07031444  0.69382808  0.14356456  1
  Zn  Zn1341  1  0.07984467  0.78437766  0.14910761  1
  C  C1342  1  0.07311153  0.91400962  0.14888490  1
  O  O1343  1  0.10180394  0.87434733  0.14915288  1
  C  C1344  1  0.03356419  0.72740394  0.13993142  1
  H  H1345  1  0.14598955  0.60032601  0.17229414  1
  H  H1346  1  0.18734950  0.69958146  0.17223704  1
  H  H1347  1  0.19288805  0.87060055  0.16025899  1
  C  C1348  1  0.03668063  0.69510825  0.20976180  1
  H  H1349  1  0.07201968  0.59733895  0.18788289  1
  C  C1350  1  0.03107496  0.80328041  0.20218267  1
  C  C1351  1  0.15504467  0.69730376  0.17858849  1
  C  C1352  1  0.13116176  0.64359896  0.17795164  1
  C  C1353  1  0.20362325  0.85599539  0.17354710  1
  H  H1354  1  0.07939043  0.60056955  0.22249788  1
  C  C1355  1  0.05270905  0.71616207  0.22782515  1
  C  C1356  1  0.08127338  0.79559126  0.20796865  1
  C  C1357  1  0.07526613  0.77063630  0.22683950  1
  C  C1358  1  0.07528835  0.69030763  0.19654388  1
  C  C1359  1  0.09054943  0.63992155  0.18690230  1
  C  C1360  1  0.09963816  0.74382300  0.19685708  1
  H  H1361  1  0.10204209  0.83751473  0.20713648  1
  C  C1362  1  0.13763170  0.74953023  0.18648007  1
  H  H1363  1  0.15771961  0.78957379  0.18477049  1
  H  H1364  1  0.13389627  0.68060611  0.21293817  1
  C  C1365  1  0.19634027  0.88952429  0.18918393  1
  C  C1366  1  0.14278164  0.64451393  0.22204300  1
  C  C1367  1  0.18449779  0.64915434  0.23089667  1
  C  C1368  1  0.11125541  0.60338829  0.22784575  1
  C  C1369  1  0.20947425  0.86625398  0.20521686  1
  C  C1370  1  0.19755294  0.60216666  0.24239909  1
  C  C1371  1  0.04981249  0.68120925  0.24353147  1
  H  H1372  1  0.20176088  0.89219621  0.21694796  1
  C  C1373  1  0.09270225  0.80102792  0.24153703  1
  C  C1374  1  0.22781627  0.80870456  0.20609978  1
  H  H1375  1  0.20707396  0.68763075  0.22907751  1
  O  O1376  1  0.03306837  0.62863984  0.24527366  1
  C  C1377  1  0.12072731  0.56028509  0.24101843  1
  H  H1378  1  0.21025719  0.60845241  0.17613356  1
  C  C1379  1  0.17138407  0.94778438  0.18611340  1
  H  H1380  1  0.14072424  0.95012940  0.19485709  1
  C  C1381  1  0.22615283  0.80199660  0.17444788  1
  H  H1382  1  0.23472886  0.78642881  0.21869358  1
  H  H1383  1  0.18357830  0.55995079  0.20754993  1
  H  H1384  1  0.14891094  0.98392304  0.13929261  1
  C  C1385  1  0.00380729  0.97118947  0.15038496  1
  C  C1386  1  0.23816944  0.77749514  0.19075091  1
  H  H1387  1  0.02861971  0.90139653  0.20087402  1
  C  C1388  1  0.23443975  0.57166468  0.17728044  1
  O  O1389  1  0.10865198  0.85497611  0.24080912  1
  C  C1390  1  0.24560214  0.57933343  0.24728295  1
  C  C1391  1  0.16387508  0.56308317  0.24846163  1
  C  C1392  1  0.23169605  0.73478706  0.13398343  1
  H  H1393  1  0.09301294  0.52990792  0.24445575  1
  H  H1394  1  0.24303899  0.97585380  0.16290422  1
  H  H1395  1  0.23646641  0.77996673  0.16207644  1
  C  C1396  1  0.24658150  0.51321186  0.24015403  1
  C  C1397  1  0.18529201  0.51979411  0.19938826  1
  O  O1398  1  0.09620080  0.99425477  0.22238002  1
  C  C1399  1  0.22837967  0.52329825  0.18883741  1
  C  C1400  1  0.24976240  0.79491614  0.12787759  1
  H  H1401  1  0.06572960  0.51194245  0.16719328  1
  O  O1402  1  0.14000493  0.51313118  0.19051468  1
  H  H1403  1  0.42326312  0.61169301  0.14457845  1
  H  H1404  1  0.30602832  0.51290999  0.22430106  1
  C  C1405  1  0.43046351  0.61946018  0.20748677  1
  C  C1406  1  0.49770311  0.66447984  0.17321642  1
  C  C1407  1  0.49346393  0.82266653  0.17007152  1
  C  C1408  1  0.27345317  0.95458731  0.16790289  1
  C  C1409  1  0.41350142  0.72164010  0.20272012  1
  H  H1410  1  0.31476581  0.96069231  0.20893039  1
  C  C1411  1  0.25764406  0.71610733  0.19070589  1
  O  O1412  1  0.26644891  0.68415894  0.20478539  1
  O  O1413  1  0.35445529  0.55716038  0.14937241  1
  O  O1414  1  0.26434441  0.69699582  0.17629813  1
  Zn  Zn1415  1  0.31941583  0.63234535  0.20638275  1
  H  H1416  1  0.47457082  0.92571917  0.24552313  1
  O  O1417  1  0.38700547  0.71606806  0.14973150  1
  H  H1418  1  0.34575771  0.77207141  0.19972864  1
  C  C1419  1  0.27626749  0.57539020  0.17005166  1
  C  C1420  1  0.45691756  0.56475223  0.20895412  1
  C  C1421  1  0.37878824  0.74868077  0.20058277  1
  H  H1422  1  0.33596736  0.67747789  0.12955966  1
  C  C1423  1  0.31947607  0.76533237  0.14055413  1
  C  C1424  1  0.29210730  0.86201256  0.15155287  1
  C  C1425  1  0.35879817  0.80863309  0.16302316  1
  H  H1426  1  0.49271790  0.90409998  0.14613638  1
  C  C1427  1  0.42275886  0.70791138  0.16304549  1
  C  C1428  1  0.26383775  0.68631140  0.13354162  1
  H  H1429  1  0.33404138  0.88737574  0.17332033  1
  C  C1430  1  0.31007892  0.71041089  0.12880060  1
  C  C1431  1  0.36809632  0.99658889  0.19279510  1
  C  C1432  1  0.25117319  0.62694006  0.13617767  1
  C  C1433  1  0.32613560  0.97122193  0.19528286  1
  H  H1434  1  0.27574736  0.60574150  0.24304329  1
  H  H1435  1  0.27527908  0.59306990  0.13395455  1
  H  H1436  1  0.49247486  0.57044706  0.20909581  1
  H  H1437  1  0.38475338  0.80739135  0.17219109  1
  C  C1438  1  0.47169992  0.79413340  0.13747517  1
  C  C1439  1  0.45073407  0.60954676  0.15319123  1
  H  H1440  1  0.45319198  0.83877623  0.13730578  1
  H  H1441  1  0.42434501  0.74068287  0.23229264  1
  C  C1442  1  0.29660532  0.96433618  0.18105138  1
  C  C1443  1  0.30569019  0.52747491  0.17235848  1
  C  C1444  1  0.34862662  0.52429529  0.16193413  1
  H  H1445  1  0.34775624  0.72240506  0.24730917  1
  C  C1446  1  0.41989284  0.73240479  0.24626239  1
  C  C1447  1  0.35766428  0.76107029  0.15110979  1
  O  O1448  1  0.26540326  0.90648989  0.15242718  1
  H  H1449  1  0.28512463  0.61527096  0.16132600  1
  H  H1450  1  0.44015910  0.75053697  0.16504877  1
  C  C1451  1  0.36240868  0.55388232  0.20911763  1
  C  C1452  1  0.28724695  0.80961750  0.14033157  1
  C  C1453  1  0.44613194  0.67897447  0.20519856  1
  C  C1454  1  0.38872416  0.50406976  0.21155797  1
  C  C1455  1  0.43636801  0.51138979  0.21219562  1
  C  C1456  1  0.48395686  0.56355773  0.15288602  1
  C  C1457  1  0.45798561  0.65837617  0.16349949  1
  H  H1458  1  0.39509090  0.57102947  0.24511268  1
  C  C1459  1  0.32996271  0.85684118  0.16301834  1
  H  H1460  1  0.48211957  0.68943745  0.20329281  1
  C  C1461  1  0.38343467  0.60816422  0.20850536  1
  O  O1462  1  0.27016529  0.79998660  0.24135871  1
  H  H1463  1  0.45948183  0.83747494  0.17230953  1
  O  O1464  1  0.48073964  0.51705074  0.14367365  1
  H  H1465  1  0.39904633  0.69847308  0.17457294  1
  H  H1466  1  0.44468507  0.75832900  0.13922228  1
  C  C1467  1  0.49980405  0.73544861  0.24669867  1
  H  H1468  1  0.20025954  0.76668616  0.31773091  1
  C  C1469  1  0.21626752  0.92051662  0.29568600  1
  C  C1470  1  0.21144838  0.76282203  0.28134433  1
  O  O1471  1  0.21703853  0.67061621  0.33269448  1
  H  H1472  1  0.14257753  0.65767321  0.32805434  1
  H  H1473  1  0.18098254  0.74210176  0.28627541  1
  H  H1474  1  0.23138914  0.58036464  0.31642533  1
  C  C1475  1  0.23229265  0.57585999  0.30183520  1
  H  H1476  1  0.10533419  0.84729591  0.31927092  1
  C  C1477  1  0.09068756  0.85084688  0.30595836  1
  C  C1478  1  0.10323324  0.60229659  0.29551283  1
  H  H1479  1  0.11340806  0.55703443  0.29251482  1
  C  C1480  1  0.11589320  0.86265335  0.29082592  1
  H  H1481  1  0.15277891  0.86464407  0.29220741  1
  C  C1482  1  0.10276783  0.70656837  0.29640787  1
  C  C1483  1  0.12650940  0.65538172  0.29112116  1
  H  H1484  1  0.10608347  0.78383510  0.26827644  1
  C  C1485  1  0.21048441  0.94075082  0.27807744  1
  C  C1486  1  0.19102030  0.94854201  0.30768736  1
  H  H1487  1  0.15559826  0.65465614  0.28278026  1
  C  C1488  1  0.09250951  0.87201873  0.27492324  1
  C  C1489  1  0.04579823  0.85946137  0.27346648  1
  H  H1490  1  0.06583538  0.69107770  0.27167879  1
  C  C1491  1  0.04528351  0.84845622  0.30443100  1
  C  C1492  1  0.06041576  0.62490518  0.30264779  1
  C  C1493  1  0.06381999  0.69023929  0.30460662  1
  H  H1494  1  0.11550275  0.75566747  0.29490976  1
  C  C1495  1  0.23362316  0.78019873  0.31353909  1
  H  H1496  1  0.22863337  0.91855880  0.26757652  1
  C  C1497  1  0.19287117  0.93015300  0.32772337  1
  C  C1498  1  0.20982920  0.86563343  0.33232665  1
  C  C1499  1  0.20773877  0.54750573  0.27521608  1
  H  H1500  1  0.03699735  0.72192963  0.30949999  1
  C  C1501  1  0.03910002  0.59636007  0.26430049  1
  H  H1502  1  0.07515297  0.59719890  0.26433500  1
  H  H1503  1  0.17415198  0.55024890  0.32748053  1
  C  C1504  1  0.02088445  0.85231704  0.28847899  1
  C  C1505  1  0.20047211  0.53894807  0.29342476  1
  H  H1506  1  0.03524023  0.85676287  0.25990678  1
  H  H1507  1  0.06735109  0.61596769  0.33466748  1
  H  H1508  1  0.18183391  0.83608640  0.33815505  1
  C  C1509  1  0.13276147  0.64109260  0.34122837  1
  O  O1510  1  0.03931624  0.80943669  0.33340893  1
  O  O1511  1  0.17652532  0.95919223  0.33890550  1
  C  C1512  1  0.20752771  0.65235545  0.34741982  1
  C  C1513  1  0.09160918  0.61784223  0.34465219  1
  C  C1514  1  0.16610961  0.63585930  0.35424374  1
  C  C1515  1  0.03292470  0.58556911  0.36677295  1
  H  H1516  1  0.23712620  0.64795279  0.35649490  1
  C  C1517  1  0.08136303  0.59952828  0.36200492  1
  C  C1518  1  0.16002384  0.60869940  0.37130229  1
  H  H1519  1  0.19586655  0.77067209  0.35904325  1
  C  C1520  1  0.22274378  0.76195594  0.36775582  1
  C  C1521  1  0.22071893  0.76613404  0.26394755  1
  H  H1522  1  0.15692226  0.86179054  0.26193036  1
  C  C1523  1  0.12306311  0.87925332  0.25974066  1
  H  H1524  1  0.02743322  0.62739102  0.27460458  1
  H  H1525  1  0.23883304  0.88442885  0.29998221  1
  C  C1526  1  0.06669621  0.71250387  0.25820403  1
  C  C1527  1  0.24291359  0.78421605  0.29327649  1
  C  C1528  1  0.24722458  0.83645214  0.32303079  1
  C  C1529  1  0.01998023  0.83715247  0.32242638  1
  C  C1530  1  0.24315978  0.57738841  0.26717481  1
  H  H1531  1  0.05448229  0.52151379  0.28975351  1
  C  C1532  1  0.08723214  0.76550400  0.25694612  1
  H  H1533  1  0.12527631  0.92644039  0.25385867  1
  C  C1534  1  0.02612399  0.50712477  0.28164519  1
  H  H1535  1  0.02517842  0.73621042  0.37408880  1
  C  C1536  1  0.11620367  0.59429607  0.37491576  1
  C  C1537  1  0.05369381  0.97277401  0.33060807  1
  C  C1538  1  0.01423084  0.53948685  0.26682983  1
  H  H1539  1  0.08966682  0.96477539  0.32976348  1
  C  C1540  1  0.02880371  0.99672408  0.34168695  1
  C  C1541  1  0.15966016  0.99674441  0.30555534  1
  C  C1542  1  0.18169984  0.51321541  0.26131764  1
  H  H1543  1  0.13913779  0.52501073  0.35469927  1
  O  O1544  1  0.00140560  0.60417892  0.35672727  1
  C  C1545  1  0.17468435  0.50298508  0.32210435  1
  O  O1546  1  0.17048702  0.50518866  0.30082333  1
  C  C1547  1  0.18062885  0.98612670  0.27516690  1
  H  H1548  1  0.19357464  0.75274339  0.25408386  1
  C  C1549  1  0.26548853  0.60987374  0.29446200  1
  Zn  Zn1550  1  0.26173104  0.92270234  0.33385284  1
  C  C1551  1  0.26744187  0.69108295  0.33017940  1
  C  C1552  1  0.26823390  0.76202400  0.36179149  1
  H  H1553  1  0.27594965  0.76566507  0.34774586  1
  C  C1554  1  0.26146768  0.79260665  0.25681102  1
  H  H1555  1  0.48594396  0.91574497  0.27935143  1
  C  C1556  1  0.27435139  0.61447793  0.27636060  1
  H  H1557  1  0.28997138  0.63558384  0.30245362  1
  H  H1558  1  0.47999003  0.94796885  0.30652521  1
  O  O1559  1  0.30778063  0.64254151  0.26838248  1
  C  C1560  1  0.27484115  0.74119775  0.32010373  1
  H  H1561  1  0.31383763  0.71803544  0.28215814  1
  H  H1562  1  0.34789083  0.55335710  0.28205202  1
  H  H1563  1  0.34857969  0.66971061  0.29358821  1
  C  C1564  1  0.28451617  0.80270469  0.28723369  1
  C  C1565  1  0.28939641  0.85787071  0.31740717  1
  C  C1566  1  0.29146765  0.81143362  0.27008364  1
  C  C1567  1  0.31732542  0.76138821  0.31564387  1
  C  C1568  1  0.31528936  0.81534307  0.30360195  1
  H  H1569  1  0.32262838  0.83136758  0.26516136  1
  H  H1570  1  0.45389420  0.79758079  0.29981722  1
  H  H1571  1  0.35136331  0.82498426  0.30087861  1
  C  C1572  1  0.35753426  0.73836162  0.32268454  1
  O  O1573  1  0.39686910  0.76372973  0.31960836  1
  H  H1574  1  0.41325368  0.59953087  0.29552425  1
  H  H1575  1  0.41726989  0.70578188  0.29773289  1
  H  H1576  1  0.49066836  0.73239244  0.28181096  1
  C  C1577  1  0.41823593  0.71861546  0.28382112  1
  C  C1578  1  0.45786464  0.73033396  0.27551796  1
  C  C1579  1  0.38114255  0.71039341  0.27295876  1
  C  C1580  1  0.38730800  0.57981808  0.30398457  1
  C  C1581  1  0.39255611  0.57830384  0.32289939  1
  C  C1582  1  0.48653109  0.75620130  0.32235428  1
  C  C1583  1  0.33894943  0.68412111  0.28026472  1
  H  H1584  1  0.37511361  0.87714238  0.27776115  1
  C  C1585  1  0.48500276  0.79026531  0.30652973  1
  C  C1586  1  0.44509347  0.59312717  0.26441173  1
  C  C1587  1  0.39335442  0.94269056  0.31564153  1
  C  C1588  1  0.44088571  0.73509515  0.32811871  1
  C  C1589  1  0.34957389  0.55068126  0.29638897  1
  C  C1590  1  0.46803156  0.57256585  0.27959021  1
  C  C1591  1  0.45803784  0.73399580  0.25702822  1
  H  H1592  1  0.29730290  0.92080147  0.27952664  1
  C  C1593  1  0.34855395  0.94434479  0.32036986  1
  H  H1594  1  0.42144919  0.60047071  0.32954112  1
  H  H1595  1  0.43500302  0.68929660  0.32449303  1
  H  H1596  1  0.41348451  0.90127602  0.31853630  1
  C  C1597  1  0.36222275  0.54130859  0.33210296  1
  C  C1598  1  0.36922498  0.92357061  0.27335240  1
  C  C1599  1  0.35076856  0.68643442  0.33257256  1
  C  C1600  1  0.30759867  0.66463734  0.33630816  1
  C  C1601  1  0.32805444  0.89136624  0.32779494  1
  H  H1602  1  0.37947542  0.67102545  0.34074320  1
  H  H1603  1  0.30462849  0.62298579  0.34370040  1
  H  H1604  1  0.43792832  0.73862389  0.34219944  1
  H  H1605  1  0.35141472  0.85721692  0.33338536  1
  O  O1606  1  0.42575952  0.64052951  0.35261001  1
  H  H1607  1  0.39229424  0.55120041  0.35886721  1
  C  C1608  1  0.31720842  0.53805040  0.36020264  1
  O  O1609  1  0.44415886  0.89839506  0.34495247  1
  C  C1610  1  0.41365408  0.88467241  0.35421723  1
  C  C1611  1  0.36383415  0.52811720  0.35218981  1
  C  C1612  1  0.35896306  0.96587229  0.35618399  1
  H  H1613  1  0.33748942  0.74142662  0.36951485  1
  C  C1614  1  0.37201764  0.90827534  0.36260882  1
  C  C1615  1  0.45856641  0.98888666  0.30304164  1
  C  C1616  1  0.42709940  0.66673900  0.36634460  1
  H  H1617  1  0.37990518  0.98834148  0.34611846  1
  C  C1618  1  0.32564591  0.94684738  0.27426086  1
  C  C1619  1  0.37974886  0.72036246  0.25447576  1
  C  C1620  1  0.40353171  0.95659233  0.26564152  1
  H  H1621  1  0.43813411  0.93872159  0.26385664  1
  C  C1622  1  0.30992846  0.57637108  0.37449866  1
  H  H1623  1  0.45564494  0.63735826  0.25901532  1
  C  C1624  1  0.41130534  0.55792954  0.25646331  1
  H  H1625  1  0.48662221  0.57198455  0.36281750  1
  C  C1626  1  0.31922280  0.51783531  0.30631549  1
  Zn  Zn1627  1  0.41986604  0.80281670  0.36668191  1
  C  C1628  1  0.30239495  0.74647642  0.37377012  1
  C  C1629  1  0.32516607  0.51194831  0.32454779  1
  C  C1630  1  0.28185948  0.50565621  0.35258048  1
  C  C1631  1  0.45621341  0.51643548  0.28661013  1
  H  H1632  1  0.49217317  0.60314370  0.28520461  1
  O  O1633  1  0.40391311  0.71258933  0.37055525  1
  C  C1634  1  0.32231629  0.99883108  0.31832040  1
  C  C1635  1  0.41235523  0.99175177  0.30754857  1
  C  C1636  1  0.32250044  0.99499968  0.36331779  1
  C  C1637  1  0.39851063  0.50275943  0.26382381  1
  C  C1638  1  0.23289267  0.53228396  0.37632291  1
  H  H1639  1  0.20041459  0.52493115  0.38356005  1
  C  C1640  1  0.00578813  0.92940982  0.47608840  1
  H  H1641  1  0.01324965  0.90876899  0.44973958  1
  H  H1642  1  0.18765639  0.60192413  0.38069759  1
  C  C1643  1  0.01785239  0.69235702  0.48580438  1
  C  C1644  1  0.02059725  0.63209577  0.49070540  1
  O  O1645  1  0.22587299  0.98540869  0.39507203  1
  C  C1646  1  0.21258782  0.74464460  0.38510730  1
  C  C1647  1  0.02135073  0.95429835  0.49107236  1
  C  C1648  1  0.13098182  0.51594593  0.48899606  1
  C  C1649  1  0.03289927  0.93405232  0.39524144  1
  O  O1650  1  0.04936507  0.70877399  0.40063794  1
  C  C1651  1  0.01154926  0.72081294  0.39857175  1
  H  H1652  1  0.17676382  0.74023870  0.38880334  1
  H  H1653  1  0.09548727  0.89078833  0.38905164  1
  C  C1654  1  0.07830707  0.92247880  0.39824892  1
  C  C1655  1  0.09929323  0.95426051  0.41185933  1
  H  H1656  1  0.16785714  0.91435258  0.41127445  1
  H  H1657  1  0.02348938  0.72404430  0.43269029  1
  H  H1658  1  0.11362890  0.61921943  0.43260936  1
  H  H1659  1  0.15018139  0.74646354  0.41390445  1
  H  H1660  1  0.21372590  0.72372988  0.42303198  1
  C  C1661  1  0.14710969  0.95155700  0.41777080  1
  H  H1662  1  0.08574980  0.81060010  0.41599713  1
  H  H1663  1  0.02705129  0.60267093  0.42570984  1
  C  C1664  1  0.05420842  0.56585623  0.42526176  1
  C  C1665  1  0.09920544  0.57475400  0.42925158  1
  O  O1666  1  0.20252171  0.60154024  0.43011152  1
  C  C1667  1  0.18052435  0.53802462  0.42966895  1
  H  H1668  1  0.22716010  0.82111474  0.43785343  1
  C  C1669  1  0.13697089  0.75187037  0.42742625  1
  C  C1670  1  0.14258503  0.93789653  0.43768955  1
  C  C1671  1  0.09955874  0.79049976  0.42816263  1
  H  H1672  1  0.18138785  0.69393883  0.44266101  1
  H  H1673  1  0.05214872  0.55123335  0.49585342  1
  H  H1674  1  0.05249641  0.83809126  0.44310373  1
  H  H1675  1  0.04568753  0.80867136  0.47872398  1
  C  C1676  1  0.07646939  0.80101308  0.44397792  1
  C  C1677  1  0.05799851  0.59591997  0.49111138  1
  C  C1678  1  0.15434653  0.72830252  0.44316586  1
  C  C1679  1  0.07325328  0.77875837  0.47860365  1
  C  C1680  1  0.06181649  0.71242487  0.48285322  1
  C  C1681  1  0.09406573  0.77824252  0.46003800  1
  C  C1682  1  0.09950896  0.67851756  0.48208540  1
  C  C1683  1  0.13148107  0.73947861  0.45882838  1
  H  H1684  1  0.18342041  0.85517053  0.43992113  1
  H  H1685  1  0.17090496  0.67789763  0.47596501  1
  C  C1686  1  0.14338646  0.70923166  0.47633321  1
  C  C1687  1  0.16315213  0.88872939  0.44675661  1
  C  C1688  1  0.15406146  0.88246109  0.46497737  1
  C  C1689  1  0.10055390  0.61582156  0.48618648  1
  C  C1690  1  0.15062169  0.76074349  0.48964528  1
  H  H1691  1  0.16877680  0.84241458  0.47135846  1
  C  C1692  1  0.12808754  0.92506943  0.47388433  1
  O  O1693  1  0.13678006  0.58404585  0.48442566  1
  C  C1694  1  0.11235431  0.79504672  0.49123547  1
  H  H1695  1  0.12055196  0.92099972  0.48756937  1
  C  C1696  1  0.13200961  0.52815361  0.42812485  1
  C  C1697  1  0.23823785  0.94545891  0.47437846  1
  H  H1698  1  0.20534984  0.95259012  0.48050819  1
  C  C1699  1  0.00773812  0.97084781  0.40554945  1
  H  H1700  1  0.10818266  0.57206415  0.38719191  1
  H  H1701  1  0.19544771  0.53885918  0.46689688  1
  C  C1702  1  0.24433900  0.60578629  0.42544067  1
  C  C1703  1  0.24713905  0.71889067  0.41704065  1
  H  H1704  1  0.23816025  0.84338961  0.46220132  1
  H  H1705  1  0.23218185  0.91746730  0.46308640  1
  C  C1706  1  0.24688864  0.72743713  0.39682325  1
  C  C1707  1  0.11755029  0.97861722  0.44712014  1
  C  C1708  1  0.10761725  0.97215881  0.46476482  1
  H  H1709  1  0.01410840  0.91073166  0.38486127  1
  H  H1710  1  0.22232451  0.74641269  0.49641439  1
  O  O1711  1  0.02437362  0.56200717  0.38007928  1
  H  H1712  1  0.19675184  0.51216391  0.44086998  1
  C  C1713  1  0.04085686  0.50608146  0.42270932  1
  H  H1714  1  0.19667579  0.52349401  0.41720830  1
  H  H1715  1  0.24459741  0.63490407  0.49814290  1
  C  C1716  1  0.18991344  0.77040600  0.49909430  1
  H  H1717  1  0.10350795  0.50938321  0.47939048  1
  C  C1718  1  0.07325189  0.99550187  0.42221831  1
  C  C1719  1  0.32945305  0.71268663  0.40495213  1
  H  H1720  1  0.49641128  0.94285201  0.38581848  1
  H  H1721  1  0.33399798  0.60650746  0.38068835  1
  C  C1722  1  0.26724678  0.57110026  0.38221931  1
  H  H1723  1  0.41928987  0.52079817  0.47000453  1
  C  C1724  1  0.39603049  0.95511346  0.45285800  1
  C  C1725  1  0.34759307  0.88078050  0.37670226  1
  C  C1726  1  0.45222656  0.66431022  0.39734352  1
  C  C1727  1  0.38304380  0.90614686  0.46585895  1
  H  H1728  1  0.25485793  0.51376344  0.42840831  1
  O  O1729  1  0.26329287  0.90770677  0.48850192  1
  C  C1730  1  0.35856144  0.52303080  0.45081720  1
  H  H1731  1  0.33223678  0.51210574  0.41689161  1
  H  H1732  1  0.35938246  0.83784761  0.38160525  1
  O  O1733  1  0.47247669  0.95837874  0.39344695  1
  C  C1734  1  0.29171966  0.72982310  0.39104099  1
  C  C1735  1  0.29442530  0.86105982  0.43672466  1
  C  C1736  1  0.26224892  0.81621996  0.43394591  1
  C  C1737  1  0.27916256  0.76926933  0.42421379  1
  H  H1738  1  0.28317748  0.90128888  0.44287173  1
  C  C1739  1  0.31301333  0.55341840  0.41685505  1
  O  O1740  1  0.40411549  0.62164283  0.46122957  1
  C  C1741  1  0.43829513  0.95258280  0.44488637  1
  H  H1742  1  0.44651617  0.50568739  0.42341907  1
  H  H1743  1  0.36555139  0.64695350  0.49251325  1
  C  C1744  1  0.25820645  0.81742058  0.47185168  1
  H  H1745  1  0.25861493  0.73897583  0.45686574  1
  C  C1746  1  0.30237386  0.75217163  0.49624832  1
  C  C1747  1  0.29037533  0.81223057  0.49918736  1
  H  H1748  1  0.45221621  0.92623752  0.39638104  1
  H  H1749  1  0.49478825  0.84979221  0.47705308  1
  H  H1750  1  0.28613341  0.54797061  0.47820594  1
  H  H1751  1  0.35797116  0.89978695  0.43393817  1
  C  C1752  1  0.37375444  0.72035923  0.45689798  1
  H  H1753  1  0.36393910  0.70576106  0.39920170  1
  C  C1754  1  0.48287119  0.59185265  0.37628115  1
  C  C1755  1  0.44681173  0.52137719  0.47915094  1
  H  H1756  1  0.43495047  0.70740555  0.39962368  1
  H  H1757  1  0.46647029  0.65052555  0.42531829  1
  O  O1758  1  0.30148229  0.66636471  0.47627959  1
  C  C1759  1  0.49652326  0.76230706  0.42142922  1
  H  H1760  1  0.38875356  0.54823434  0.38428586  1
  C  C1761  1  0.45635987  0.64116885  0.38018946  1
  H  H1762  1  0.35011209  0.80988143  0.45724600  1
  C  C1763  1  0.26743259  0.75895162  0.46944772  1
  H  H1764  1  0.34258923  0.70529623  0.45077788  1
  C  C1765  1  0.47186021  0.63523209  0.41167270  1
  O  O1766  1  0.42016583  0.86680328  0.47135052  1
  C  C1767  1  0.35511920  0.80900294  0.42192699  1
  H  H1768  1  0.36363354  0.61192967  0.43857913  1
  C  C1769  1  0.36135552  0.59067729  0.45153940  1
  H  H1770  1  0.37117740  0.92821781  0.47823330  1
  C  C1771  1  0.40690079  0.67852271  0.46187148  1
  C  C1772  1  0.33718494  0.60306407  0.41150170  1
  H  H1773  1  0.25936794  0.59905905  0.39353209  1
  C  C1774  1  0.48334116  0.67239002  0.47330684  1
  C  C1775  1  0.31057912  0.90951358  0.38385016  1
  C  C1776  1  0.45285296  0.77116054  0.47073247  1
  C  C1777  1  0.30911413  0.51031981  0.47834293  1
  C  C1778  1  0.33116538  0.63000959  0.48967075  1
  H  H1779  1  0.42885397  0.60308329  0.49325142  1
  C  C1780  1  0.45234626  0.56515172  0.49156078  1
  C  C1781  1  0.27090205  0.55465296  0.42344875  1
  C  C1782  1  0.26776142  0.65783554  0.41987213  1
  C  C1783  1  0.37953722  0.78063601  0.45966414  1
  C  C1784  1  0.45039345  0.99836521  0.43333201  1
  O  O1785  1  0.45825451  0.81669117  0.39178497  1
  H  H1786  1  0.48288282  0.99529504  0.42650855  1
  C  C1787  1  0.39845608  0.54382561  0.39788004  1
  C  C1788  1  0.49376007  0.78822909  0.38954368  1
  C  C1789  1  0.32266991  0.76485887  0.41743497  1
  C  C1790  1  0.49266258  0.80012278  0.47454934  1
  H  H1791  1  0.46099195  0.91714575  0.44761511  1
  C  C1792  1  0.29101517  0.72096824  0.48110740  1
  H  H1793  1  0.33378219  0.60945599  0.45889338  1
  H  H1794  1  0.43244302  0.56104017  0.40044668  1
  H  H1795  1  0.35528870  0.87879041  0.46015604  1
  C  C1796  1  0.26909452  0.85131643  0.48719500  1
  H  H1797  1  0.46504492  0.78482890  0.42423344  1
  C  C1798  1  0.44707319  0.70711348  0.46816656  1
  H  H1799  1  0.29244724  0.89033607  0.39498780  1
  H  H1800  1  0.38950213  0.80089361  0.41859865  1
  C  C1801  1  0.41474649  0.81009856  0.46785940  1
  H  H1802  1  0.47717294  0.98424233  0.49415336  1
  C  C1803  1  0.29963119  0.96640050  0.37747495  1
  O  O1804  1  0.37663639  0.60340058  0.40406111  1
  H  H1805  1  0.33806857  0.59286232  0.47975965  1
  C  C1806  1  0.33841863  0.85943585  0.43099953  1
  C  C1807  1  0.31201503  0.65615690  0.41393026  1
  H  H1808  1  0.48121615  0.62563335  0.47218686  1
  H  H1809  1  0.14803064  0.88343001  0.52447165  1
  C  C1810  1  0.13521074  0.76778089  0.55894867  1
  C  C1811  1  0.12941817  0.81975006  0.56934939  1
  C  C1812  1  0.14686807  0.71204983  0.53234974  1
  O  O1813  1  0.12619231  0.76767444  0.54227169  1
  C  C1814  1  0.10973539  0.87725375  0.56164442  1
  H  H1815  1  0.18230243  0.71008109  0.53553707  1
  H  H1816  1  0.10145265  0.87475493  0.54753295  1
  C  C1817  1  0.12441269  0.65269231  0.53275229  1
  C  C1818  1  0.16671932  0.96694472  0.55940238  1
  C  C1819  1  0.14067920  0.92722028  0.56936499  1
  C  C1820  1  0.14700958  0.59685464  0.53599743  1
  C  C1821  1  0.07733727  0.65581094  0.52940774  1
  H  H1822  1  0.05887371  0.69657104  0.52501749  1
  H  H1823  1  0.14226712  0.73680085  0.51968846  1
  C  C1824  1  0.05497470  0.60172670  0.52874237  1
  H  H1825  1  0.21480026  0.82707209  0.51904617  1
  C  C1826  1  0.06750095  0.88883643  0.57301281  1
  C  C1827  1  0.07613697  0.54584993  0.53143858  1
  H  H1828  1  0.18301391  0.59641889  0.53954678  1
  C  C1829  1  0.15156086  0.72016337  0.56947781  1
  C  C1830  1  0.07752515  0.55115304  0.57601579  1
  H  H1831  1  0.15457744  0.67775186  0.56235408  1
  C  C1832  1  0.02529182  0.90404536  0.56612238  1
  H  H1833  1  0.20619308  0.57949291  0.52185838  1
  C  C1834  1  0.12122868  0.54454557  0.53583244  1
  C  C1835  1  0.14688183  0.85041269  0.51356476  1
  H  H1836  1  0.04411015  0.56075881  0.57195848  1
  C  C1837  1  0.18656447  0.81688654  0.51116684  1
  H  H1838  1  0.01753032  0.90533857  0.55197000  1
  O  O1839  1  0.03438092  0.67943664  0.57730814  1
  C  C1840  1  0.10944368  0.59563150  0.57938997  1
  H  H1841  1  0.10432442  0.64383668  0.57949433  1
  C  C1842  1  0.14914499  0.56439012  0.58496148  1
  H  H1843  1  0.18081311  0.58142428  0.59060395  1
  C  C1844  1  0.14780211  0.92893504  0.58793823  1
  C  C1845  1  0.14006987  0.81879899  0.58708616  1
  C  C1846  1  0.07278404  0.88608154  0.59154119  1
  C  C1847  1  0.16593415  0.72299302  0.58614199  1
  C  C1848  1  0.12376466  0.87561421  0.59655250  1
  H  H1849  1  0.03551281  0.75100165  0.60953914  1
  H  H1850  1  0.04512195  0.89439598  0.61733993  1
  H  H1851  1  0.17855378  0.68529896  0.59330187  1
  C  C1852  1  0.16289133  0.77522544  0.59690441  1
  H  H1853  1  0.13187152  0.86881228  0.61060751  1
  C  C1854  1  0.08019117  0.68103527  0.61545776  1
  O  O1855  1  0.17153175  0.78220830  0.61354531  1
  O  O1856  1  0.12420039  0.59048323  0.61844686  1
  H  H1857  1  0.10439110  0.69555420  0.60589594  1
  C  C1858  1  0.04162003  0.71542941  0.61897490  1
  C  C1859  1  0.03872870  0.89545836  0.60327357  1
  H  H1860  1  0.05917938  0.54135416  0.60244444  1
  H  H1861  1  0.16100677  0.51590379  0.61764218  1
  C  C1862  1  0.22678466  0.68497288  0.61630892  1
  C  C1863  1  0.17311728  0.97219080  0.59677839  1
  H  H1864  1  0.22150357  0.78019523  0.56691683  1
  H  H1865  1  0.16594504  0.96213841  0.54485116  1
  C  C1866  1  0.08884466  0.62545342  0.62309754  1
  H  H1867  1  0.24122047  0.67569439  0.56046347  1
  H  H1868  1  0.02022339  0.59811036  0.52566983  1
  H  H1869  1  0.17820444  0.96845325  0.61108708  1
  C  C1870  1  0.12892255  0.52586010  0.62475499  1
  H  H1871  1  0.01189940  0.71207880  0.55252171  1
  C  C1872  1  0.24493960  0.77255338  0.55609070  1
  C  C1873  1  0.24228977  0.57681797  0.52066173  1
  H  H1874  1  0.07784895  0.86337618  0.50702360  1
  C  C1875  1  0.14334572  0.50385456  0.58241221  1
  C  C1876  1  0.19722944  0.73483217  0.62339215  1
  H  H1877  1  0.13513598  0.50149269  0.53995368  1
  H  H1878  1  0.11521026  0.50789000  0.50181120  1
  O  O1879  1  0.00387278  0.50789519  0.52363699  1
  H  H1880  1  0.03856237  0.92679343  0.50099505  1
  C  C1881  1  0.10791012  0.84030057  0.50453600  1
  C  C1882  1  0.00280640  0.66789997  0.58528205  1
  H  H1883  1  0.25122896  0.71820519  0.59060239  1
  C  C1884  1  0.25202425  0.68342532  0.60044531  1
  C  C1885  1  0.25500561  0.71098568  0.55228033  1
  H  H1886  1  0.25165698  0.86803742  0.54795570  1
  C  C1887  1  0.26292270  0.81972505  0.54598139  1
  C  C1888  1  0.27963028  0.63502866  0.59751846  1
  C  C1889  1  0.26337797  0.60678373  0.50693179  1
  H  H1890  1  0.27482610  0.82961083  0.60386079  1
  C  C1891  1  0.28031608  0.92571110  0.60853736  1
  H  H1892  1  0.29140757  0.64997437  0.53358555  1
  C  C1893  1  0.28288208  0.69630425  0.53765356  1
  C  C1894  1  0.27139463  0.53976609  0.53113283  1
  C  C1895  1  0.29021206  0.80278733  0.53140341  1
  C  C1896  1  0.30021661  0.74222543  0.52795402  1
  H  H1897  1  0.29565640  0.88772180  0.51545053  1
  C  C1898  1  0.30760234  0.84178486  0.51609075  1
  C  C1899  1  0.33154892  0.73150858  0.51206928  1
  C  C1900  1  0.31743902  0.53093743  0.53029865  1
  H  H1901  1  0.34029088  0.72434919  0.55701508  1
  H  H1902  1  0.36023917  0.65004568  0.53978289  1
  C  C1903  1  0.37621764  0.72373929  0.55555227  1
  C  C1904  1  0.40478941  0.76726202  0.56210774  1
  C  C1905  1  0.38749566  0.67799913  0.54457684  1
  C  C1906  1  0.44976498  0.75272238  0.55640831  1
  C  C1907  1  0.43043184  0.66457638  0.53826459  1
  C  C1908  1  0.46174624  0.70629268  0.54560258  1
  O  O1909  1  0.43590153  0.61896007  0.52749612  1
  O  O1910  1  0.39513078  0.81437570  0.57149544  1
  C  C1911  1  0.47067266  0.54677440  0.56096690  1
  C  C1912  1  0.39275765  0.88013583  0.51602432  1
  C  C1913  1  0.43826634  0.85912715  0.51416216  1
  C  C1914  1  0.37149722  0.77454807  0.51329448  1
  C  C1915  1  0.41642317  0.75314372  0.51217662  1
  C  C1916  1  0.35929394  0.83500845  0.51589947  1
  C  C1917  1  0.33728288  0.56490221  0.51696490  1
  C  C1918  1  0.48196009  0.60555422  0.51881423  1
  H  H1919  1  0.34203165  0.68441524  0.51119981  1
  H  H1920  1  0.42612543  0.70813095  0.51084916  1
  C  C1921  1  0.44821353  0.79895769  0.51208335  1
  H  H1922  1  0.37182550  0.56093569  0.51466588  1
  H  H1923  1  0.46439450  0.89150136  0.51554885  1
  C  C1924  1  0.48587911  0.55877696  0.50447723  1
  H  H1925  1  0.33207541  0.82370972  0.56486995  1
  H  H1926  1  0.43670949  0.62250128  0.56985544  1
  H  H1927  1  0.47757410  0.82836158  0.57182693  1
  H  H1928  1  0.48476520  0.78708463  0.51049780  1
  C  C1929  1  0.46053914  0.58658594  0.57395124  1
  H  H1930  1  0.45474339  0.55322219  0.54720160  1
  C  C1931  1  0.34384983  0.82001095  0.57837924  1
  H  H1932  1  0.37686916  0.92845994  0.57422732  1
  H  H1933  1  0.38598432  0.92613058  0.52000568  1
  C  C1934  1  0.35053164  0.92658378  0.58384349  1
  H  H1935  1  0.33305756  0.77491105  0.58280664  1
  C  C1936  1  0.32863984  0.87238007  0.58858440  1
  H  H1937  1  0.44395943  0.70170181  0.58824908  1
  H  H1938  1  0.40819378  0.63428916  0.59045731  1
  C  C1939  1  0.29232880  0.87313826  0.60064436  1
  C  C1940  1  0.47932955  0.58962419  0.59111243  1
  H  H1941  1  0.29645937  0.62996695  0.58481420  1
  C  C1942  1  0.42567605  0.67045180  0.59715049  1
  O  O1943  1  0.46589469  0.62527147  0.60292059  1
  C  C1944  1  0.39467916  0.70448914  0.60886301  1
  C  C1945  1  0.39984278  0.76966574  0.60954496  1
  H  H1946  1  0.42585040  0.79258035  0.60199028  1
  C  C1947  1  0.28368853  0.59307793  0.61046855  1
  C  C1948  1  0.30709826  0.53785228  0.60500257  1
  O  O1949  1  0.31657295  0.52815945  0.58938342  1
  C  C1950  1  0.48759986  0.79100282  0.56379898  1
  C  C1951  1  0.37346769  0.80016539  0.62113585  1
  C  C1952  1  0.31006841  0.59995454  0.50543603  1
  H  H1953  1  0.49492411  0.65025580  0.51558712  1
  C  C1954  1  0.36178421  0.67454986  0.61924125  1
  H  H1955  1  0.36248136  0.62381782  0.61922694  1
  H  H1956  1  0.49768682  0.59206084  0.53159539  1
  C  C1957  1  0.30397318  0.97868467  0.60430793  1
  H  H1958  1  0.37730274  0.84797133  0.62394602  1
  H  H1959  1  0.25528282  0.92642919  0.61797071  1
  C  C1960  1  0.33971434  0.97896944  0.59224443  1
  C  C1961  1  0.00343422  0.92013016  0.64196004  1
  C  C1962  1  0.00029897  0.64347276  0.65997394  1
  C  C1963  1  0.00495717  0.54366792  0.64780974  1
  H  H1964  1  0.05935466  0.98090335  0.64173759  1
  C  C1965  1  0.02391829  0.97623555  0.63789712  1
  H  H1966  1  0.16738187  0.71606137  0.63017172  1
  H  H1967  1  0.00068623  0.61947299  0.72045739  1
  H  H1968  1  0.11679097  0.51840075  0.67622500  1
  C  C1969  1  0.21127501  0.95791003  0.65936153  1
  H  H1970  1  0.13475842  0.52912536  0.63851437  1
  H  H1971  1  0.22068327  0.51224959  0.64355926  1
  C  C1972  1  0.09083128  0.95728749  0.71481743  1
  H  H1973  1  0.12274499  0.96113318  0.72229044  1
  C  C1974  1  0.02347320  0.58729705  0.72665856  1
  C  C1975  1  0.02877142  0.52710672  0.72092067  1
  C  C1976  1  0.15918991  0.94792092  0.68502080  1
  C  C1977  1  0.05511323  0.61643789  0.63637464  1
  C  C1978  1  0.02399084  0.65625956  0.64249191  1
  H  H1979  1  0.04649197  0.74802354  0.65518298  1
  C  C1980  1  0.08217650  0.75867718  0.65741014  1
  C  C1981  1  0.10115957  0.81710094  0.65491817  1
  C  C1982  1  0.07289547  0.86895547  0.65012778  1
  H  H1983  1  0.08341183  0.89325575  0.63771433  1
  O  O1984  1  0.01980319  0.87079631  0.64894898  1
  C  C1985  1  0.05502141  0.56037025  0.64869655  1
  C  C1986  1  0.11104796  0.71246145  0.65975940  1
  H  H1987  1  0.09512589  0.66946113  0.65905179  1
  H  H1988  1  0.06948652  0.90474041  0.66168668  1
  C  C1989  1  0.15886553  0.71640354  0.66049473  1
  H  H1990  1  0.21699094  0.76517168  0.63323624  1
  H  H1991  1  0.21089055  0.64505578  0.64159029  1
  C  C1992  1  0.06248213  0.57697573  0.66794304  1
  C  C1993  1  0.14808903  0.82786507  0.65646943  1
  O  O1994  1  0.18532717  0.67600275  0.66192348  1
  C  C1995  1  0.17531757  0.77861107  0.65915114  1
  H  H1996  1  0.16128414  0.87350598  0.65838404  1
  H  H1997  1  0.21077137  0.78333157  0.66111871  1
  C  C1998  1  0.03639722  0.62651719  0.67339418  1
  O  O1999  1  0.02555766  0.79347525  0.72615651  1
  C  C2000  1  0.09493797  0.55632253  0.67938104  1
  C  C2001  1  0.01404713  0.94951728  0.69188357  1
  C  C2002  1  0.09721283  0.58741437  0.69526085  1
  H  H2003  1  0.04120860  0.85570033  0.68916651  1
  C  C2004  1  0.04299368  0.89953921  0.69525724  1
  C  C2005  1  0.03828236  0.65818769  0.68934050  1
  H  H2006  1  0.07175621  0.78253662  0.70203311  1
  C  C2007  1  0.07375640  0.63957164  0.69982048  1
  C  C2008  1  0.09927719  0.75469468  0.70862111  1
  H  H2009  1  0.14728199  0.75029564  0.68633736  1
  C  C2010  1  0.05478557  0.60795306  0.73921318  1
  C  C2011  1  0.21378821  0.69092791  0.70227945  1
  C  C2012  1  0.13812402  0.73856725  0.69947084  1
  C  C2013  1  0.17233131  0.82950319  0.72260346  1
  C  C2014  1  0.09071041  0.73941073  0.72619518  1
  C  C2015  1  0.16858193  0.70627613  0.70947915  1
  H  H2016  1  0.17477787  0.78610126  0.71759560  1
  H  H2017  1  0.08095108  0.66142512  0.71286094  1
  C  C2018  1  0.16044121  0.69180626  0.72720310  1
  C  C2019  1  0.07879965  0.90209522  0.70676471  1
  H  H2020  1  0.09795696  0.86196153  0.70935076  1
  C  C2021  1  0.12167444  0.70775131  0.73638321  1
  H  H2022  1  0.14979234  0.93135231  0.69812143  1
  C  C2023  1  0.05032551  0.76266507  0.73548005  1
  C  C2024  1  0.14972300  0.84201390  0.73801917  1
  C  C2025  1  0.19888319  0.92109812  0.72077979  1
  H  H2026  1  0.12198956  0.57014451  0.70361647  1
  C  C2027  1  0.19817505  0.93281526  0.67517874  1
  H  H2028  1  0.21974054  0.70132595  0.68780732  1
  H  H2029  1  0.18743454  0.67110354  0.73529021  1
  C  C2030  1  0.19904055  0.86505081  0.71158779  1
  C  C2031  1  0.17876955  0.93343674  0.73758599  1
  H  H2032  1  0.07939874  0.52488201  0.64350589  1
  H  H2033  1  0.01854740  0.69603727  0.69310616  1
  C  C2034  1  0.23293553  0.64159038  0.62956718  1
  C  C2035  1  0.08790958  0.57018350  0.74632748  1
  C  C2036  1  0.01012367  0.70619843  0.63174944  1
  O  O2037  1  0.24622275  0.66803804  0.70778717  1
  H  H2038  1  0.13175641  0.80674005  0.74475509  1
  C  C2039  1  0.13241662  0.98762127  0.67587251  1
  C  C2040  1  0.21883154  0.97838929  0.71383563  1
  H  H2041  1  0.05414910  0.65537957  0.74261488  1
  H  H2042  1  0.23191335  0.97019883  0.70054142  1
  C  C2043  1  0.23127974  0.88933386  0.68324020  1
  H  H2044  1  0.24024492  0.93801744  0.65396412  1
  C  C2045  1  0.15321629  0.89499898  0.74705198  1
  O  O2046  1  0.21706782  0.84507006  0.69595842  1
  C  C2047  1  0.18632471  0.99887165  0.74521950  1
  H  H2048  1  0.24812508  0.86373378  0.67339375  1
  C  C2049  1  0.09381950  0.51158260  0.74024498  1
  C  C2050  1  0.18276243  0.99527149  0.65060180  1
  H  H2051  1  0.39949542  0.59980553  0.72053313  1
  H  H2052  1  0.27231719  0.65109492  0.74470503  1
  C  C2053  1  0.42487320  0.91173634  0.71900526  1
  C  C2054  1  0.29329889  0.51778951  0.67444907  1
  C  C2055  1  0.45035345  0.74795394  0.68483016  1
  O  O2056  1  0.42272575  0.69424254  0.73725961  1
  H  H2057  1  0.47448118  0.95593065  0.73725501  1
  C  C2058  1  0.25593082  0.99781987  0.72650331  1
  H  H2059  1  0.26409438  0.56003918  0.63788426  1
  H  H2060  1  0.26110989  0.89429112  0.74953091  1
  C  C2061  1  0.28597163  0.51754582  0.72453775  1
  H  H2062  1  0.33134514  0.71269269  0.73785314  1
  C  C2063  1  0.33562188  0.77346735  0.63023610  1
  H  H2064  1  0.45694020  0.77546628  0.63332123  1
  C  C2065  1  0.41884095  0.74006689  0.65554179  1
  C  C2066  1  0.47638478  0.63318727  0.64460059  1
  H  H2067  1  0.28083085  0.54607619  0.73579668  1
  H  H2068  1  0.37771332  0.77480311  0.72386118  1
  C  C2069  1  0.26219281  0.59496630  0.62687667  1
  H  H2070  1  0.37678285  0.86054450  0.70210733  1
  C  C2071  1  0.27971241  0.74985387  0.74640767  1
  C  C2072  1  0.48802817  0.77545195  0.67765009  1
  O  O2073  1  0.27697330  0.83513771  0.64741260  1
  O  O2074  1  0.28012810  0.56732674  0.67158012  1
  C  C2075  1  0.25825268  0.69524233  0.74922732  1
  C  C2076  1  0.43115694  0.75337200  0.74829855  1
  H  H2077  1  0.31333942  0.99798323  0.70994407  1
  C  C2078  1  0.48930031  0.78709410  0.65950838  1
  H  H2079  1  0.44631084  0.73406037  0.69874628  1
  C  C2080  1  0.42629954  0.54461381  0.64807538  1
  O  O2081  1  0.39376798  0.57346370  0.64320992  1
  C  C2082  1  0.28349782  0.53634137  0.70767034  1
  C  C2083  1  0.39996821  0.81261112  0.72513681  1
  C  C2084  1  0.45516922  0.91513544  0.73338378  1
  H  H2085  1  0.44782229  0.65768836  0.64054628  1
  C  C2086  1  0.30309990  0.80733223  0.63963255  1
  C  C2087  1  0.36836786  0.54872370  0.73969775  1
  H  H2088  1  0.26994345  0.57989923  0.70533699  1
  H  H2089  1  0.38508348  0.71095074  0.67993504  1
  C  C2090  1  0.39778894  0.86316482  0.71462009  1
  C  C2091  1  0.33353280  0.70910737  0.62902769  1
  O  O2092  1  0.31887156  0.75271938  0.73595054  1
  C  C2093  1  0.42459847  0.97059195  0.70857190  1
  H  H2094  1  0.30909777  0.68329387  0.63697704  1
  Zn  Zn2095  1  0.47129017  0.91849010  0.67556867  1
  C  C2096  1  0.41527098  0.73064068  0.67419280  1
  C  C2097  1  0.45752348  0.86382000  0.74385087  1
  C  C2098  1  0.43049809  0.81362051  0.73941253  1
  H  H2099  1  0.39580761  0.72109342  0.64608298  1
  H  H2100  1  0.25609877  0.91688564  0.69134335  1
  O  O2101  1  0.41104680  0.96964389  0.69364574  1
  C  C2102  1  0.40208657  0.64982105  0.74454080  1
  C  C2103  1  0.45631507  0.76602144  0.64795940  1
  H  H2104  1  0.36543695  0.51136586  0.73032105  1
  C  C2105  1  0.47175122  0.57263916  0.64947993  1
  C  C2106  1  0.39066780  0.59803258  0.73476611  1
  H  H2107  1  0.31215035  0.85694867  0.74686092  1
  O  O2108  1  0.16579932  0.62229858  0.77061731  1
  O  O2109  1  0.04811248  0.71902997  0.78860616  1
  C  C2110  1  0.13080784  0.96266500  0.80901355  1
  C  C2111  1  0.13809041  0.92380129  0.77775955  1
  C  C2112  1  0.11615607  0.93105040  0.79422781  1
  C  C2113  1  0.05274205  0.89536226  0.80991468  1
  C  C2114  1  0.07570793  0.89708924  0.79462718  1
  H  H2115  1  0.17180209  0.94064994  0.77742709  1
  H  H2116  1  0.06571447  0.86725134  0.78420063  1
  Zn  Zn2117  1  0.15630245  0.60407775  0.79591378  1
  H  H2118  1  0.07350207  0.73121549  0.78157712  1
  O  O2119  1  0.09406538  0.57939331  0.80591437  1
  H  H2120  1  0.16760786  0.74046904  0.77419818  1
  C  C2121  1  0.19743298  0.74298718  0.76650329  1
  O  O2122  1  0.13864848  0.71117541  0.80200362  1
  C  C2123  1  0.17125793  0.71310077  0.81267610  1
  O  O2124  1  0.18988045  0.66409726  0.81477080  1
  O  O2125  1  0.12530171  0.89499131  0.76484907  1
  C  C2126  1  0.20278321  0.63112870  0.76148195  1
  Zn  Zn2127  1  0.07086106  0.71447370  0.81289452  1
  C  C2128  1  0.10883072  0.95886852  0.82489261  1
  C  C2129  1  0.07003975  0.92655690  0.82487450  1
  O  O2130  1  0.21976746  0.93237362  0.80251001  1
  C  C2131  1  0.21996723  0.69320359  0.75914493  1
  H  H2132  1  0.13913259  0.83147110  0.81197806  1
  C  C2133  1  0.16535316  0.82252221  0.82122925  1
  C  C2134  1  0.18522066  0.76720631  0.82301126  1
  C  C2135  1  0.08218124  0.58305403  0.82180113  1
  O  O2136  1  0.07226556  0.62960826  0.82941549  1
  H  H2137  1  0.21327574  0.83286822  0.77400331  1
  C  C2138  1  0.22327979  0.79402797  0.76623835  1
  H  H2139  1  0.17533247  0.91300906  0.83117825  1
  C  C2140  1  0.08366255  0.52749407  0.83258291  1
  C  C2141  1  0.18516762  0.86462485  0.83209654  1
  C  C2142  1  0.22170471  0.75399631  0.83516366  1
  C  C2143  1  0.08048943  0.53595070  0.85061196  1
  C  C2144  1  0.04281234  0.92333421  0.84143072  1
  H  H2145  1  0.08001999  0.57977921  0.85690445  1
  O  O2146  1  0.04899578  0.95053952  0.85536129  1
  C  C2147  1  0.21697959  0.85640096  0.84500835  1
  Zn  Zn2148  1  0.02755851  0.78713504  0.85114150  1
  H  H2149  1  0.21664257  0.94195046  0.85615950  1
  O  O2150  1  0.02258220  0.74616032  0.82924130  1
  H  H2151  1  0.02189241  0.87048648  0.81070325  1
  H  H2152  1  0.23613377  0.70919881  0.83485434  1
  O  O2153  1  0.07544177  0.77723739  0.87401795  1
  C  C2154  1  0.23522887  0.79680615  0.84671860  1
  O  O2155  1  0.01097239  0.88545487  0.84116849  1
  C  C2156  1  0.24211292  0.90930371  0.85232383  1
  H  H2157  1  0.11767207  0.98550005  0.83633730  1
  H  H2158  1  0.23609593  0.73600742  0.79940127  1
  H  H2159  1  0.16531336  0.98550634  0.80824723  1
  Zn  Zn2160  1  0.00236434  0.77029013  0.77679870  1
  H  H2161  1  0.11628903  0.58756788  0.75393487  1
  H  H2162  1  0.11763464  0.70209812  0.75075213  1
  H  H2163  1  0.04330889  0.98680390  0.76557547  1
  O  O2164  1  0.04790796  0.75926179  0.75139657  1
  O  O2165  1  0.22443370  0.59110647  0.75537554  1
  C  C2166  1  0.25127143  0.96219005  0.80318077  1
  C  C2167  1  0.25236367  0.50772248  0.78928292  1
  H  H2168  1  0.45008625  0.51309353  0.79521134  1
  C  C2169  1  0.26000383  0.51333431  0.80710989  1
  H  H2170  1  0.25912752  0.78765218  0.85712403  1
  H  H2171  1  0.26388593  0.93012030  0.84235714  1
  H  H2172  1  0.25249683  0.63165719  0.79393535  1
  H  H2173  1  0.26610756  0.85528399  0.81734610  1
  O  O2174  1  0.29281048  0.69369063  0.85427553  1
  C  C2175  1  0.26909065  0.72620889  0.79389952  1
  H  H2176  1  0.48553633  0.64720680  0.79980725  1
  C  C2177  1  0.27865806  0.66510833  0.79285859  1
  O  O2178  1  0.28984336  0.89165012  0.77242035  1
  H  H2179  1  0.28751608  0.81801968  0.79163448  1
  C  C2180  1  0.32310043  0.65243095  0.78758920  1
  C  C2181  1  0.35506929  0.69869499  0.78518966  1
  C  C2182  1  0.34499770  0.75807321  0.78724040  1
  H  H2183  1  0.37042037  0.79137407  0.78462420  1
  C  C2184  1  0.40112896  0.67010925  0.77872851  1
  C  C2185  1  0.34292660  0.58765036  0.78571089  1
  C  C2186  1  0.33073713  0.93374740  0.79490370  1
  C  C2187  1  0.32802600  0.91602907  0.77741072  1
  H  H2188  1  0.42891084  0.70446098  0.77739000  1
  C  C2189  1  0.38225911  0.58837489  0.79857928  1
  C  C2190  1  0.36209636  0.58862311  0.76708298  1
  C  C2191  1  0.41779996  0.62225522  0.79204375  1
  C  C2192  1  0.40614728  0.95222297  0.77457373  1
  C  C2193  1  0.37178561  0.95740283  0.80122994  1
  C  C2194  1  0.29642272  0.94218766  0.81015221  1
  C  C2195  1  0.30012032  0.77287137  0.79171093  1
  C  C2196  1  0.29371431  0.88799499  0.81944929  1
  H  H2197  1  0.40806112  0.85422631  0.80281052  1
  C  C2198  1  0.38904631  0.63746516  0.76234769  1
  C  C2199  1  0.44476454  0.78178698  0.81505439  1
  C  C2200  1  0.43461690  0.82293853  0.80141304  1
  C  C2201  1  0.45582138  0.62085994  0.80289743  1
  C  C2202  1  0.36864641  0.92641432  0.76851482  1
  H  H2203  1  0.43232710  0.95754762  0.76458644  1
  H  H2204  1  0.31927756  0.55315622  0.78841221  1
  H  H2205  1  0.44581994  0.86087299  0.77582106  1
  C  C2206  1  0.45724966  0.82442233  0.78545480  1
  C  C2207  1  0.38157964  0.55128701  0.81369600  1
  C  C2208  1  0.42018604  0.55483258  0.82454594  1
  C  C2209  1  0.45840955  0.58727784  0.81841362  1
  H  H2210  1  0.46058497  0.74571414  0.75604058  1
  C  C2211  1  0.41223445  0.96957832  0.79242661  1
  H  H2212  1  0.46040686  0.52588799  0.76329241  1
  C  C2213  1  0.48107906  0.74404377  0.81179961  1
  H  H2214  1  0.42403400  0.77027804  0.82684651  1
  C  C2215  1  0.33026627  0.87537184  0.82944170  1
  C  C2216  1  0.36753307  0.91683316  0.83168276  1
  H  H2217  1  0.30698351  0.78450610  0.83692873  1
  C  C2218  1  0.45299599  0.67948810  0.84872519  1
  H  H2219  1  0.47664101  0.88717959  0.85755789  1
  C  C2220  1  0.33109647  0.82035816  0.83920450  1
  H  H2221  1  0.42824079  0.94010582  0.84572238  1
  C  C2222  1  0.39976964  0.90675500  0.84391514  1
  C  C2223  1  0.39855072  0.85389305  0.85432712  1
  C  C2224  1  0.36237495  0.81192142  0.85124531  1
  H  H2225  1  0.36020442  0.77045896  0.85813009  1
  C  C2226  1  0.45593575  0.72367699  0.85721637  1
  O  O2227  1  0.42752672  0.84556759  0.86545487  1
  H  H2228  1  0.37246813  0.91094762  0.75523912  1
  C  C2229  1  0.36761001  0.97368870  0.82054887  1
  H  H2230  1  0.49081386  0.58587969  0.82511501  1
  O  O2231  1  0.45206836  0.55246193  0.86379075  1
  O  O2232  1  0.27319933  0.90571085  0.86840939  1
  H  H2233  1  0.48016666  0.86205882  0.75455585  1
  H  H2234  1  0.42365407  0.53130857  0.83709560  1
  H  H2235  1  0.44613912  0.63639443  0.84081978  1
  H  H2236  1  0.35159290  0.52673049  0.81735447  1
  C  C2237  1  0.28280589  0.85973875  0.75483367  1
  C  C2238  1  0.26055645  0.79795354  0.75546596  1
  C  C2239  1  0.41735877  0.55946399  0.87056869  1
  H  H2240  1  0.49433611  0.71596518  0.82203134  1
  C  C2241  1  0.34751093  0.53933067  0.75671384  1
  H  H2242  1  0.31904450  0.54468480  0.85977653  1
  C  C2243  1  0.49371782  0.78614385  0.78160601  1
  H  H2244  1  0.49394697  0.87302965  0.82615121  1
  O  O2245  1  0.28344304  0.51828281  0.84108867  1
  O  O2246  1  0.44757850  0.98856969  0.80061490  1
  H  H2247  1  0.26970562  0.53378949  0.77899626  1
  H  H2248  1  0.30291174  0.99745296  0.83498727  1
  C  C2249  1  0.31487458  0.99378747  0.82143657  1
  H  H2250  1  0.28428190  0.54053737  0.81306924  1
  H  H2251  1  0.40145598  0.75135460  0.75654556  1
  C  C2252  1  0.32842470  0.55881648  0.87252713  1
  H  H2253  1  0.45931837  0.76323350  0.86508587  1
  C  C2254  1  0.31118152  0.68068103  0.86546123  1
  H  H2255  1  0.09277540  0.66903946  0.87628520  1
  H  H2256  1  0.00698147  0.61378335  0.90629985  1
  H  H2257  1  0.21635680  0.51949952  0.95110019  1
  C  C2258  1  0.16634538  0.50814136  0.98649299  1
  C  C2259  1  0.18451431  0.99610270  0.90298718  1
  H  H2260  1  0.00267176  0.71779987  0.95536872  1
  C  C2261  1  0.23623023  0.98678011  0.96429788  1
  H  H2262  1  0.18777323  0.87628082  0.87896961  1
  C  C2263  1  0.01937747  0.52237307  0.89840653  1
  Zn  Zn2264  1  0.03449802  0.89420161  0.87887738  1
  C  C2265  1  0.01363463  0.54340360  0.97324176  1
  C  C2266  1  0.13540685  0.53598279  0.95755766  1
  H  H2267  1  0.08841519  0.52134137  0.93191994  1
  C  C2268  1  0.09093497  0.97122083  0.89935713  1
  C  C2269  1  0.06307998  0.77374101  0.88952798  1
  O  O2270  1  0.05105293  0.82153281  0.89676076  1
  O  O2271  1  0.05036150  0.96297159  0.89777240  1
  C  C2272  1  0.06903255  0.71571417  0.89957533  1
  C  C2273  1  0.08435407  0.66473311  0.89050267  1
  C  C2274  1  0.09782461  0.61384694  0.89852387  1
  H  H2275  1  0.11497168  0.57773779  0.89129085  1
  H  H2276  1  0.19104801  0.71989975  0.88739380  1
  C  C2277  1  0.21047616  0.71336883  0.89939248  1
  C  C2278  1  0.20367577  0.85924409  0.90574643  1
  C  C2279  1  0.11511995  0.95496582  0.91505848  1
  C  C2280  1  0.21270472  0.87786482  0.88845480  1
  H  H2281  1  0.03943993  0.55464590  0.90463091  1
  H  H2282  1  0.16752236  0.85489004  0.90719964  1
  C  C2283  1  0.05816049  0.71038193  0.91696453  1
  C  C2284  1  0.18962062  0.68742529  0.91382997  1
  H  H2285  1  0.15592533  0.66785851  0.91269399  1
  C  C2286  1  0.16003633  0.96664506  0.91668129  1
  C  C2287  1  0.08708606  0.61113016  0.91690045  1
  H  H2288  1  0.09536217  0.93613437  0.92565907  1
  H  H2289  1  0.09431977  0.79604146  0.92424974  1
  C  C2290  1  0.04529703  0.53543286  0.98678240  1
  C  C2291  1  0.02688648  0.70933744  0.96591884  1
  H  H2292  1  0.04268486  0.74960843  0.92325945  1
  H  H2293  1  0.17601682  0.95204313  0.92813559  1
  H  H2294  1  0.17122415  0.76839709  0.93382660  1
  C  C2295  1  0.02574830  0.65410031  0.97535102  1
  H  H2296  1  0.05648860  0.79447845  0.96464640  1
  C  C2297  1  0.06734645  0.65997812  0.92606281  1
  H  H2298  1  0.14007919  0.54558428  0.92204428  1
  H  H2299  1  0.16993937  0.90816291  0.96163177  1
  C  C2300  1  0.05437496  0.75469963  0.97262481  1
  H  H2301  1  0.02660445  0.85751384  0.93107468  1
  C  C2302  1  0.05756795  0.86251558  0.93816831  1
  C  C2303  1  0.09502751  0.82953816  0.93432854  1
  H  H2304  1  0.17590564  0.62064215  0.94653420  1
  O  O2305  1  0.11610431  0.57759742  0.94795451  1
  H  H2306  1  0.10235821  0.97010570  0.96683126  1
  C  C2307  1  0.02147799  0.94562386  0.95285958  1
  C  C2308  1  0.06179535  0.90966993  0.94968285  1
  C  C2309  1  0.10773423  0.56090553  0.92778384  1
  H  H2310  1  0.05955421  0.65796005  0.94007362  1
  C  C2311  1  0.14472082  0.54595911  0.97521623  1
  H  H2312  1  0.13111185  0.58676007  0.98014804  1
  C  C2313  1  0.10145990  0.93085639  0.95733979  1
  C  C2314  1  0.13814630  0.89649677  0.95507747  1
  H  H2315  1  0.13979303  0.69642585  0.96861779  1
  C  C2316  1  0.13511565  0.84623342  0.94313635  1
  C  C2317  1  0.17397427  0.71381052  0.97139481  1
  C  C2318  1  0.08160754  0.74398342  0.98758788  1
  C  C2319  1  0.18208559  0.76357832  0.98521756  1
  C  C2320  1  0.20896908  0.64585581  0.94602255  1
  C  C2321  1  0.20688808  0.69923659  0.96050801  1
  C  C2322  1  0.17740261  0.80888248  0.94172499  1
  H  H2323  1  0.19126761  0.79413149  0.95525105  1
  C  C2324  1  0.21792538  0.67902348  0.92852629  1
  H  H2325  1  0.16129362  0.80074892  0.98123115  1
  O  O2326  1  0.22402867  0.83392013  0.93701609  1
  H  H2327  1  0.10094408  0.78326780  0.99204129  1
  C  C2328  1  0.05104973  0.64552049  0.99029054  1
  C  C2329  1  0.22904445  0.78818600  0.98691179  1
  H  H2330  1  0.16348390  0.65323127  0.99500830  1
  O  O2331  1  0.23436846  0.94746622  0.97439243  1
  C  C2332  1  0.23170744  0.85275872  0.92073425  1
  C  C2333  1  0.08020978  0.69250721  0.99628059  1
  O  O2334  1  0.02955604  0.99146576  0.96164156  1
  H  H2335  1  0.23779154  0.82452502  0.99574493  1
  C  C2336  1  0.23241219  0.62696767  0.99340161  1
  H  H2337  1  0.24046602  0.65475586  0.98202685  1
  H  H2338  1  0.23603405  0.93214409  0.94613808  1
  C  C2339  1  0.24663512  0.54378362  0.95406324  1
  H  H2340  1  0.17103545  0.74923180  0.99852461  1
  C  C2341  1  0.24879471  0.60567970  0.95098335  1
  C  C2342  1  0.24782175  0.73056768  0.96127405  1
  O  O2343  1  0.24273501  0.97462711  0.94468546  1
  H  H2344  1  0.24528770  0.99535806  0.91942505  1
  C  C2345  1  0.11677204  0.99893956  0.88589872  1
  C  C2346  1  0.15950670  0.50451175  0.88557002  1
  C  C2347  1  0.00422734  0.50530552  0.95881806  1
  H  H2348  1  0.20695621  0.50302761  0.91043534  1
  C  C2349  1  0.40612151  0.61275370  0.96846345  1
  H  H2350  1  0.47504793  0.57020712  0.98879009  1
  H  H2351  1  0.39897421  0.59917492  0.90519895  1
  C  C2352  1  0.32859872  0.61052182  0.95773938  1
  C  C2353  1  0.35764248  0.99789720  0.90407852  1
  C  C2354  1  0.26043751  0.76914041  0.97483744  1
  C  C2355  1  0.25428603  0.73629667  0.89915156  1
  H  H2356  1  0.25533173  0.98648060  0.89617578  1
  H  H2357  1  0.30224775  0.86062224  0.94292787  1
  H  H2358  1  0.41600087  0.50104818  0.92472658  1
  H  H2359  1  0.42712532  0.93471253  0.89728050  1
  H  H2360  1  0.28215233  0.99310352  0.87916350  1
  C  C2361  1  0.49428133  0.65526696  0.89734510  1
  C  C2362  1  0.28720152  0.51305225  0.95717839  1
  C  C2363  1  0.43668756  0.64984410  0.97912984  1
  C  C2364  1  0.28731553  0.63775107  0.95242125  1
  C  C2365  1  0.35686101  0.82818152  0.90524466  1
  H  H2366  1  0.45139341  0.79340528  0.99141785  1
  H  H2367  1  0.30016811  0.59758266  0.99688370  1
  C  C2368  1  0.33492092  0.93401464  0.92763608  1
  C  C2369  1  0.44436798  0.90371732  0.90581385  1
  C  C2370  1  0.37164602  0.78035041  0.93401461  1
  C  C2371  1  0.47178685  0.61867415  0.98821852  1
  H  H2372  1  0.46480621  0.65321030  0.94796805  1
  C  C2373  1  0.48922341  0.81245730  0.90827251  1
  H  H2374  1  0.49917149  0.75229703  0.95123598  1
  C  C2375  1  0.49304967  0.70380583  0.92635193  1
  H  H2376  1  0.31532880  0.72331571  0.94857704  1
  H  H2377  1  0.35322985  0.52757479  0.96513519  1
  H  H2378  1  0.26806503  0.75940239  0.88804536  1
  H  H2379  1  0.29280875  0.79269591  0.97408272  1
  C  C2380  1  0.32450223  0.54999331  0.96054994  1
  C  C2381  1  0.38896106  0.84079905  0.97182922  1
  C  C2382  1  0.37114880  0.58836972  0.89676249  1
  H  H2383  1  0.41005451  0.69822554  0.93220147  1
  H  H2384  1  0.41705771  0.70387643  0.89955093  1
  H  H2385  1  0.37136552  0.78095349  0.94831268  1
  H  H2386  1  0.46935913  0.85214196  0.88346053  1
  H  H2387  1  0.31474105  0.75080655  0.91409827  1
  H  H2388  1  0.45199573  0.86080819  0.94955420  1
  C  C2389  1  0.30817321  0.61213597  0.91748470  1
  O  O2390  1  0.42731690  0.85012070  0.97244048  1
  C  C2391  1  0.33452361  0.98214717  0.93986510  1
  C  C2392  1  0.40052243  0.73950165  0.90626733  1
  C  C2393  1  0.34666744  0.93866791  0.90941382  1
  C  C2394  1  0.31545929  0.87058851  0.92952016  1
  C  C2395  1  0.33674955  0.88563199  0.89740326  1
  H  H2396  1  0.45805607  0.55915234  0.92955848  1
  C  C2397  1  0.42818230  0.71140995  0.98108023  1
  C  C2398  1  0.28262438  0.70434442  0.94771269  1
  C  C2399  1  0.47724653  0.60543454  0.90559921  1
  H  H2400  1  0.47063324  0.56510377  0.89741911  1
  C  C2401  1  0.47965661  0.81275848  0.92636729  1
  C  C2402  1  0.45852689  0.86151965  0.93504329  1
  H  H2403  1  0.39055013  0.57732702  0.97644797  1
  H  H2404  1  0.39666581  0.79956417  0.88261396  1
  C  C2405  1  0.43987875  0.90614186  0.92454924  1
  C  C2406  1  0.39487204  0.73560150  0.92482708  1
  C  C2407  1  0.46930491  0.60248381  0.92395774  1
  H  H2408  1  0.39861521  0.72876065  0.97376916  1
  H  H2409  1  0.27427296  0.61706159  0.92157858  1
  H  H2410  1  0.26218691  0.57758257  0.88262249  1
  C  C2411  1  0.46819800  0.85571710  0.89819891  1
  C  C2412  1  0.38617807  0.79082168  0.89627667  1
  C  C2413  1  0.27978845  0.73356457  0.91460743  1
  O  O2414  1  0.35138509  0.83114328  0.97062701  1
  C  C2415  1  0.47437029  0.65252757  0.93426517  1
  H  H2416  1  0.42673531  0.58941150  0.95831270  1
  H  H2417  1  0.32332082  0.97781064  0.95350191  1
  C  C2418  1  0.27559504  0.86815531  0.91602130  1
  C  C2419  1  0.34806683  0.82170183  0.92346260  1
  H  H2420  1  0.34713162  0.88995960  0.88337954  1
  O  O2421  1  0.36365785  0.64454105  0.96061389  1
  H  H2422  1  0.33178229  0.62833085  0.92740619  1
  H  H2423  1  0.41617254  0.94039775  0.92989944  1
  C  C2424  1  0.45655023  0.74519313  0.99102650  1
  C  C2425  1  0.25752393  0.88931878  0.88341108  1
  C  C2426  1  0.32462128  0.59300279  0.90099546  1
  C  C2427  1  0.25966809  0.70916779  0.92962831  1
  C  C2428  1  0.29845153  0.57366555  0.88518488  1
  C  C2429  1  0.37643195  0.56867759  0.87932691  1
  C  C2430  1  0.28444668  0.88203144  0.89848210  1
  C  C2431  1  0.49195699  0.71642103  0.99957233  1
  Zn  Zn2432  1  0.59137788  0.39350751  0.05784884  1
  O  O2433  1  0.65375801  0.18246620  0.03011077  1
  C  C2434  1  0.62381271  0.20264742  0.01611597  1
  H  H2435  1  0.62470859  0.25033201  0.01987016  1
  C  C2436  1  0.65092075  0.12334055  0.03769343  1
  Zn  Zn2437  1  0.61775493  0.40876500  0.01874378  1
  C  C2438  1  0.65550310  0.06755058  0.02939254  1
  C  C2439  1  0.67395905  0.06618174  0.01051716  1
  H  H2440  1  0.59293095  0.09399632  0.02081890  1
  C  C2441  1  0.57673957  0.18118899  0.01312427  1
  C  C2442  1  0.58238003  0.22898250  0.07002598  1
  C  C2443  1  0.64165781  0.11370484  0.05527551  1
  O  O2444  1  0.62704151  0.31186958  0.06343622  1
  H  H2445  1  0.64262560  0.15307292  0.06392107  1
  C  C2446  1  0.63409788  0.05790924  0.06326554  1
  O  O2447  1  0.61733094  0.44981641  0.04063026  1
  O  O2448  1  0.54061335  0.34381892  0.04608611  1
  C  C2449  1  0.57175647  0.22165007  0.05198637  1
  C  C2450  1  0.53799314  0.14728034  0.07942558  1
  H  H2451  1  0.62562564  0.05534008  0.07708185  1
  H  H2452  1  0.58158192  0.25307799  0.04200926  1
  C  C2453  1  0.56523462  0.12172795  0.01562420  1
  C  C2454  1  0.54115733  0.17711807  0.04847411  1
  O  O2455  1  0.54623741  0.39033517  0.02113667  1
  O  O2456  1  0.69204158  0.44572456  0.01601594  1
  C  C2457  1  0.52826014  0.35103658  0.03067427  1
  H  H2458  1  0.53109641  0.17019732  0.03466009  1
  C  C2459  1  0.52020779  0.14467276  0.06186809  1
  C  C2460  1  0.61035289  0.28104076  0.07572238  1
  C  C2461  1  0.56800033  0.19263300  0.08359430  1
  C  C2462  1  0.64625282  0.46021702  0.08378844  1
  C  C2463  1  0.69496747  0.44238705  0.08359733  1
  C  C2464  1  0.70554513  0.38210089  0.08436376  1
  O  O2465  1  0.61444782  0.42268262  0.08415910  1
  H  H2466  1  0.67852950  0.34737111  0.08486202  1
  C  C2467  1  0.71383983  0.21834220  0.08394787  1
  H  H2468  1  0.53723189  0.28524211  0.11789986  1
  H  H2469  1  0.57881011  0.20128114  0.09745300  1
  H  H2470  1  0.69498351  0.25880829  0.08830302  1
  O  O2471  1  0.61993019  0.28826344  0.09136780  1
  C  C2472  1  0.70819168  0.16249230  0.09183730  1
  Zn  Zn2473  1  0.60124732  0.36231632  0.11060565  1
  C  C2474  1  0.67802137  0.15078605  0.10768782  1
  O  O2475  1  0.54120996  0.40198469  0.10878386  1
  H  H2476  1  0.64382096  0.17579844  0.10650428  1
  O  O2477  1  0.65983112  0.08976715  0.11345840  1
  H  H2478  1  0.52625983  0.11607906  0.08917880  1
  O  O2479  1  0.51526439  0.05276603  0.10794258  1
  O  O2480  1  0.51664572  0.44809774  0.06555888  1
  C  C2481  1  0.52007821  0.19299781  0.12075333  1
  C  C2482  1  0.52608278  0.09823041  0.00952403  1
  H  H2483  1  0.52588503  0.38877030  0.11847014  1
  C  C2484  1  0.54510317  0.22266973  0.00565889  1
  C  C2485  1  0.73156543  0.11104515  0.08578260  1
  H  H2486  1  0.72852888  0.06954114  0.09316355  1
  C  C2487  1  0.73691259  0.21969078  0.06785197  1
  H  H2488  1  0.73951621  0.26104920  0.05968095  1
  C  C2489  1  0.70976977  0.01597616  0.01023017  1
  C  C2490  1  0.64278176  0.00907736  0.03640878  1
  H  H2491  1  0.64554816  0.19650585  0.00417540  1
  H  H2492  1  0.68608520  0.10888846  0.00526380  1
  H  H2493  1  0.55523334  0.26910885  0.00379268  1
  H  H2494  1  0.69808252  0.16034423  0.11990898  1
  O  O2495  1  0.64113236  0.33603570  0.00220092  1
  C  C2496  1  0.63687557  0.00357618  0.05441119  1
  O  O2497  1  0.66386882  0.37198013  0.12286035  1
  O  O2498  1  0.58841698  0.47357717  0.00204898  1
  C  C2499  1  0.73283967  0.01423850  0.11990077  1
  H  H2500  1  0.69680476  0.00218614  0.11938737  1
  H  H2501  1  0.51560493  0.18334679  0.10720941  1
  C  C2502  1  0.72375659  0.48992893  0.08399842  1
  H  H2503  1  0.51829143  0.04944849  0.01072277  1
  H  H2504  1  0.74341041  0.28718529  0.11859220  1
  C  C2505  1  0.74991391  0.36909284  0.08509683  1
  C  C2506  1  0.70782654  0.49365354  0.02088309  1
  H  H2507  1  0.59276538  0.49539768  0.11380417  1
  H  H2508  1  0.75320077  0.42938630  0.05739826  1
  O  O2509  1  0.86810986  0.49926163  0.08874306  1
  C  C2510  1  0.75656152  0.16839749  0.06233867  1
  H  H2511  1  0.76267664  0.00099897  0.03511567  1
  C  C2512  1  0.75597057  0.11068160  0.07049624  1
  H  H2513  1  0.76010039  0.32258276  0.08489208  1
  C  C2514  1  0.75447557  0.02334893  0.00579779  1
  C  C2515  1  0.98655571  0.43412175  0.01507248  1
  H  H2516  1  0.77514831  0.07165387  0.06557476  1
  C  C2517  1  0.81208178  0.39640185  0.04371913  1
  O  O2518  1  0.78391734  0.23309558  0.03831840  1
  Zn  Zn2519  1  0.78114145  0.35880941  0.02083733  1
  C  C2520  1  0.77984100  0.17771424  0.04496644  1
  C  C2521  1  0.77193437  0.40486432  0.04688148  1
  H  H2522  1  0.81702589  0.19759362  0.01656667  1
  C  C2523  1  0.80368047  0.24232357  0.01863469  1
  O  O2524  1  0.79631143  0.13591994  0.03781270  1
  C  C2525  1  0.80719523  0.28592316  0.00792708  1
  H  H2526  1  0.87521739  0.26527965  0.03897763  1
  O  O2527  1  0.90884692  0.23756986  0.06051669  1
  C  C2528  1  0.89644534  0.28183220  0.04986578  1
  C  C2529  1  0.90643325  0.34607683  0.04808115  1
  C  C2530  1  0.91119251  0.38623836  0.06132419  1
  H  H2531  1  0.90883515  0.35985396  0.03470076  1
  H  H2532  1  0.84648335  0.17931939  0.05860568  1
  C  C2533  1  0.87630510  0.19134105  0.06669908  1
  C  C2534  1  0.88085122  0.26229304  0.06865134  1
  C  C2535  1  0.95379770  0.23183184  0.06901585  1
  H  H2536  1  0.96437252  0.27988479  0.06743618  1
  C  C2537  1  0.88577304  0.14859003  0.07950014  1
  H  H2538  1  0.90767187  0.17515617  0.03308165  1
  C  C2539  1  0.91003880  0.13036616  0.02867517  1
  C  C2540  1  0.91709641  0.08530261  0.04087431  1
  H  H2541  1  0.91948919  0.09716049  0.05480100  1
  C  C2542  1  0.90377581  0.36064559  0.07813466  1
  O  O2543  1  0.92613232  0.45261297  0.05781202  1
  H  H2544  1  0.93716342  0.22270954  0.08217018  1
  C  C2545  1  0.88840151  0.30243147  0.08346872  1
  C  C2546  1  0.86345896  0.44698348  0.09075872  1
  C  C2547  1  0.78287967  0.41576848  0.08704752  1
  H  H2548  1  0.94057854  0.43368719  0.08925406  1
  H  H2549  1  0.91961151  0.10579314  0.10014411  1
  H  H2550  1  0.83917169  0.35841226  0.09457733  1
  C  C2551  1  0.82852265  0.40297808  0.09074177  1
  C  C2552  1  0.89163961  0.10412619  0.09061069  1
  H  H2553  1  0.87068694  0.06219121  0.09055129  1
  H  H2554  1  0.78119813  0.20426862  0.10249500  1
  C  C2555  1  0.91050904  0.40705202  0.09208624  1
  H  H2556  1  0.87105729  0.24010295  0.10311190  1
  C  C2557  1  0.88298132  0.28567547  0.10134194  1
  C  C2558  1  0.97735646  0.25420377  0.12173880  1
  C  C2559  1  0.79018615  0.21334016  0.11613729  1
  C  C2560  1  0.91026773  0.38734149  0.11073820  1
  C  C2561  1  0.89315969  0.32617204  0.11493336  1
  H  H2562  1  0.84310375  0.14642285  0.11742755  1
  C  C2563  1  0.96703732  0.01866814  0.11311393  1
  C  C2564  1  0.96987974  0.02583849  0.07423667  1
  H  H2565  1  0.84289607  0.02928832  0.04062661  1
  C  C2566  1  0.92084124  0.02512332  0.03507664  1
  H  H2567  1  0.89101319  0.43073544  0.01417502  1
  C  C2568  1  0.95052179  0.46838187  0.04387133  1
  C  C2569  1  0.90267039  0.11352352  0.01108857  1
  H  H2570  1  0.94596823  0.35341331  0.00932012  1
  C  C2571  1  0.97914985  0.42266297  0.03307586  1
  C  C2572  1  0.76888269  0.47616854  0.08375188  1
  C  C2573  1  0.82626802  0.18206793  0.12435379  1
  C  C2574  1  0.90023288  0.05321830  0.00538233  1
  H  H2575  1  0.87974231  0.01951547  0.06665600  1
  H  H2576  1  0.83384916  0.44378340  0.12019065  1
  C  C2577  1  0.82225678  0.01035279  0.05050497  1
  C  C2578  1  0.91003681  0.00948118  0.01730027  1
  C  C2579  1  0.84403185  0.00372235  0.06599736  1
  C  C2580  1  0.81079218  0.00037410  0.11155048  1
  C  C2581  1  0.99136030  0.19295254  0.06645659  1
  H  H2582  1  0.76775210  0.06767174  0.00253537  1
  H  H2583  1  0.84204032  0.40300413  0.05180566  1
  C  C2584  1  0.98758329  0.13377908  0.11095275  1
  C  C2585  1  0.99351395  0.05736173  0.08567934  1
  H  H2586  1  0.97576268  0.47438582  0.00807198  1
  C  C2587  1  0.82504575  0.03989304  0.12395430  1
  H  H2588  1  0.86154285  0.04966144  0.12437334  1
  H  H2589  1  0.99056315  0.21078600  0.03719255  1
  C  C2590  1  0.88566910  0.40457100  0.00191046  1
  H  H2591  1  0.92525401  0.48866485  0.03405667  1
  O  O2592  1  0.90809367  0.21419125  0.00161918  1
  H  H2593  1  0.98306647  0.36618566  0.05641623  1
  C  C2594  1  0.99421309  0.37459206  0.04288244  1
  H  H2595  1  0.94557817  0.46574069  0.12094944  1
  C  C2596  1  0.92994731  0.42149845  0.12405466  1
  C  C2597  1  0.99707486  0.06621954  0.10585839  1
  C  C2598  1  0.99749814  0.24116521  0.10579588  1
  C  C2599  1  0.53306026  0.24815715  0.12661483  1
  Zn  Zn2600  1  0.52571201  0.48694427  0.12605220  1
  O  O2601  1  0.70154040  0.49895087  0.21836356  1
  C  C2602  1  0.64023350  0.08175662  0.12864375  1
  O  O2603  1  0.56491207  0.48685623  0.15133597  1
  C  C2604  1  0.52154922  0.07988032  0.12707539  1
  C  C2605  1  0.58767809  0.47641704  0.23261648  1
  H  H2606  1  0.55325927  0.05896121  0.13073732  1
  C  C2607  1  0.52313895  0.14458590  0.13238369  1
  H  H2608  1  0.62131733  0.46939896  0.22620980  1
  H  H2609  1  0.52727437  0.12228039  0.16051245  1
  O  O2610  1  0.68467740  0.45725656  0.13359720  1
  C  C2611  1  0.53198788  0.15697900  0.15034440  1
  C  C2612  1  0.67886586  0.40222445  0.13502628  1
  O  O2613  1  0.57032738  0.35656910  0.13897155  1
  C  C2614  1  0.55001450  0.25769976  0.14330825  1
  C  C2615  1  0.56853499  0.31574805  0.14932035  1
  C  C2616  1  0.54702047  0.21172098  0.15575208  1
  C  C2617  1  0.69244949  0.37832842  0.15246157  1
  H  H2618  1  0.63937477  0.17153785  0.13827274  1
  C  C2619  1  0.62891969  0.12585491  0.14054828  1
  H  H2620  1  0.65933987  0.29744153  0.14696366  1
  C  C2621  1  0.67982700  0.31953200  0.15669087  1
  C  C2622  1  0.60817254  0.11488081  0.15626194  1
  H  H2623  1  0.72194487  0.46427450  0.16262718  1
  H  H2624  1  0.72138959  0.08808281  0.13919106  1
  C  C2625  1  0.71420145  0.41556536  0.16482343  1
  O  O2626  1  0.58254319  0.31940122  0.16492133  1
  H  H2627  1  0.55305016  0.21924430  0.16972762  1
  C  C2628  1  0.58851031  0.06181494  0.16259992  1
  H  H2629  1  0.60590744  0.15598495  0.16326554  1
  C  C2630  1  0.53515184  0.13977594  0.23667750  1
  C  C2631  1  0.69263206  0.29515805  0.17220755  1
  H  H2632  1  0.68522597  0.24680888  0.17580303  1
  H  H2633  1  0.61387743  0.40470147  0.17485567  1
  O  O2634  1  0.56539866  0.05099717  0.17705100  1
  C  C2635  1  0.56095598  0.12901559  0.22135136  1
  O  O2636  1  0.60437746  0.41681556  0.18608116  1
  H  H2637  1  0.55529164  0.14565648  0.18225479  1
  C  C2638  1  0.56539342  0.10628259  0.19030421  1
  H  H2639  1  0.66497116  0.16646328  0.18685513  1
  C  C2640  1  0.53830097  0.10456998  0.20714374  1
  Zn  Zn2641  1  0.55070184  0.36673917  0.18662139  1
  O  O2642  1  0.55539416  0.29909451  0.23144513  1
  H  H2643  1  0.60357063  0.23874343  0.18772060  1
  O  O2644  1  0.54818948  0.29199879  0.20373687  1
  C  C2645  1  0.62022563  0.22266132  0.19955087  1
  C  C2646  1  0.66553326  0.19126283  0.23165625  1
  C  C2647  1  0.57050025  0.27999818  0.21773561  1
  C  C2648  1  0.61306026  0.24572487  0.21679524  1
  C  C2649  1  0.63073049  0.23140398  0.23310423  1
  C  C2650  1  0.65676997  0.18634415  0.19861868  1
  C  C2651  1  0.67970914  0.17400613  0.21480241  1
  C  C2652  1  0.71874380  0.33017144  0.18414436  1
  H  H2653  1  0.60160636  0.10524181  0.19249835  1
  C  C2654  1  0.72272367  0.13861713  0.21349622  1
  H  H2655  1  0.71498493  0.09934647  0.20491138  1
  H  H2656  1  0.68329521  0.17477164  0.24283141  1
  H  H2657  1  0.70530149  0.28063798  0.20805107  1
  H  H2658  1  0.59598467  0.13645403  0.22077575  1
  C  C2659  1  0.57062296  0.43193545  0.24261156  1
  C  C2660  1  0.72678657  0.39018404  0.18078934  1
  H  H2661  1  0.61986545  0.25165240  0.24577515  1
  H  H2662  1  0.58998552  0.39259987  0.24658543  1
  C  C2663  1  0.73439433  0.30463047  0.20169934  1
  H  H2664  1  0.66041816  0.03809472  0.18536423  1
  C  C2665  1  0.62100465  0.02691005  0.13529155  1
  H  H2666  1  0.65732013  0.01620855  0.21013581  1
  C  C2667  1  0.67458295  0.01489549  0.19737679  1
  C  C2668  1  0.59631477  0.01410325  0.15065149  1
  H  H2669  1  0.54956962  0.16229213  0.24769958  1
  C  C2670  1  0.62496060  0.02836680  0.24402870  1
  H  H2671  1  0.74183245  0.12669893  0.22496889  1
  O  O2672  1  0.74504523  0.34775212  0.21764569  1
  H  H2673  1  0.69253147  0.05906318  0.24853440  1
  H  H2674  1  0.55456924  0.01371712  0.24568230  1
  C  C2675  1  0.74691686  0.06098370  0.13149616  1
  H  H2676  1  0.74597527  0.41488617  0.19020090  1
  C  C2677  1  0.50241424  0.49243750  0.24869978  1
  C  C2678  1  0.52655016  0.43736336  0.24935644  1
  C  C2679  1  0.82243970  0.48523732  0.12787038  1
  O  O2680  1  0.78602122  0.08125607  0.23795276  1
  H  H2681  1  0.97158221  0.29836368  0.12573610  1
  C  C2682  1  0.99883509  0.23904892  0.23170650  1
  C  C2683  1  0.96647126  0.14769576  0.12708323  1
  C  C2684  1  0.96160672  0.20675994  0.13240183  1
  C  C2685  1  0.81203091  0.22591796  0.17117713  1
  O  O2686  1  0.87549442  0.02975345  0.16192627  1
  C  C2687  1  0.99990706  0.32544679  0.17681766  1
  C  C2688  1  0.90439022  0.34845407  0.14575572  1
  C  C2689  1  0.76689332  0.25894091  0.12547269  1
  C  C2690  1  0.86167642  0.23032874  0.17642420  1
  H  H2691  1  0.86078933  0.27728105  0.13738046  1
  C  C2692  1  0.79186865  0.07259766  0.13405315  1
  C  C2693  1  0.88304602  0.31253576  0.13339755  1
  C  C2694  1  0.98598743  0.18985802  0.19688560  1
  C  C2695  1  0.96876044  0.48012001  0.18693150  1
  C  C2696  1  0.87747572  0.26176785  0.19000302  1
  Zn  Zn2697  1  0.75477918  0.48580316  0.12665462  1
  C  C2698  1  0.76213784  0.42720863  0.24620994  1
  C  C2699  1  0.85750477  0.37493774  0.21916345  1
  C  C2700  1  0.83524446  0.19064318  0.14216629  1
  O  O2701  1  0.91796562  0.27656111  0.19509879  1
  H  H2702  1  0.95851295  0.18415254  0.20634928  1
  C  C2703  1  0.95417574  0.25259805  0.22590813  1
  Zn  Zn2704  1  0.91500327  0.42270712  0.24531624  1
  C  C2705  1  0.80881415  0.47903744  0.14644475  1
  C  C2706  1  0.92674163  0.26659557  0.21247210  1
  C  C2707  1  0.79179982  0.07308002  0.19443886  1
  C  C2708  1  0.77385972  0.26518168  0.23427317  1
  C  C2709  1  0.93722228  0.18674053  0.17158371  1
  C  C2710  1  0.92886481  0.40025666  0.14145561  1
  H  H2711  1  0.90326966  0.46548795  0.19571062  1
  H  H2712  1  0.94259828  0.20950013  0.14478583  1
  H  H2713  1  0.94393389  0.42367789  0.15206561  1
  H  H2714  1  0.95361400  0.11139803  0.13525216  1
  C  C2715  1  0.83018687  0.45168373  0.19955601  1
  O  O2716  1  0.82709661  0.48622051  0.21071618  1
  C  C2717  1  0.78437223  0.13380881  0.19107844  1
  C  C2718  1  0.86965480  0.35981093  0.23331316  1
  H  H2719  1  0.77275228  0.23400167  0.22341260  1
  C  C2720  1  0.76867997  0.35892066  0.24754408  1
  H  H2721  1  0.78977060  0.25486061  0.17937206  1
  H  H2722  1  0.79720080  0.11136030  0.14249871  1
  C  C2723  1  0.77203472  0.26330125  0.14389732  1
  H  H2724  1  0.82972470  0.38593148  0.14398962  1
  H  H2725  1  0.75788815  0.44381482  0.23260664  1
  H  H2726  1  0.75052829  0.29278452  0.15163265  1
  C  C2727  1  0.92429418  0.49676996  0.18912364  1
  O  O2728  1  0.95558923  0.09745032  0.24198122  1
  H  H2729  1  0.90155875  0.33655316  0.15993187  1
  C  C2730  1  0.97837929  0.17980885  0.17820236  1
  H  H2731  1  0.76343229  0.27476832  0.20063060  1
  C  C2732  1  0.76199119  0.32629793  0.23196426  1
  C  C2733  1  0.84603760  0.05880049  0.17066184  1
  C  C2734  1  0.82232327  0.42191101  0.15260644  1
  O  O2735  1  0.75721825  0.16770570  0.19956576  1
  H  H2736  1  0.94853228  0.03395149  0.15308801  1
  C  C2737  1  0.86732633  0.15244980  0.15362078  1
  H  H2738  1  0.77510510  0.05102518  0.20523699  1
  O  O2739  1  0.84451959  0.38906607  0.20427403  1
  C  C2740  1  0.81859544  0.03789029  0.18454527  1
  C  C2741  1  0.99084228  0.42352970  0.19503265  1
  H  H2742  1  0.88949344  0.12127115  0.14741888  1
  H  H2743  1  0.97847842  0.30080794  0.18604152  1
  H  H2744  1  0.83650884  0.36974684  0.17555067  1
  C  C2745  1  0.80914971  0.15863283  0.17647655  1
  C  C2746  1  0.83707658  0.12234766  0.16766739  1
  C  C2747  1  0.80637906  0.23057978  0.15131234  1
  Zn  Zn2748  1  0.88341623  0.26662990  0.23372035  1
  H  H2749  1  0.96765434  0.39546927  0.20312266  1
  C  C2750  1  0.82103364  0.46261922  0.18126150  1
  H  H2751  1  0.85496686  0.28829701  0.19889879  1
  C  C2752  1  0.89371565  0.19436572  0.16618524  1
  C  C2753  1  0.82649251  0.41306599  0.17013492  1
  C  C2754  1  0.67970286  0.14641415  0.29210588  1
  C  C2755  1  0.68221302  0.15441531  0.27183275  1
  C  C2756  1  0.69581480  0.41366440  0.28775841  1
  C  C2757  1  0.63757657  0.15330937  0.29952404  1
  C  C2758  1  0.60058182  0.16540288  0.28574387  1
  C  C2759  1  0.61692342  0.21913208  0.27533484  1
  H  H2760  1  0.56649793  0.17135179  0.29045655  1
  C  C2761  1  0.59330393  0.27287789  0.27333650  1
  H  H2762  1  0.65759375  0.25022718  0.29847906  1
  C  C2763  1  0.71786304  0.28836527  0.31048623  1
  C  C2764  1  0.67303291  0.28830566  0.30605068  1
  C  C2765  1  0.64336288  0.33004696  0.31361405  1
  C  C2766  1  0.59228065  0.33229683  0.31056998  1
  C  C2767  1  0.64914260  0.10940771  0.26414036  1
  C  C2768  1  0.60538407  0.11823114  0.27100433  1
  H  H2769  1  0.55789986  0.27527403  0.27758437  1
  C  C2770  1  0.66221823  0.21853785  0.27000892  1
  C  C2771  1  0.61714878  0.32423087  0.26865887  1
  H  H2772  1  0.71829792  0.14678494  0.26743826  1
  C  C2773  1  0.62948308  0.15139601  0.31796504  1
  H  H2774  1  0.59782380  0.36676663  0.26870843  1
  C  C2775  1  0.57125673  0.08214223  0.26407307  1
  C  C2776  1  0.57497529  0.39440613  0.30445387  1
  H  H2777  1  0.58258455  0.29708608  0.30190168  1
  C  C2778  1  0.68553502  0.26729493  0.26263300  1
  C  C2779  1  0.66062008  0.32156627  0.26246536  1
  H  H2780  1  0.69978735  0.39238122  0.30034646  1
  C  C2781  1  0.58919589  0.43649462  0.31607416  1
  C  C2782  1  0.65619782  0.44497592  0.28418282  1
  C  C2783  1  0.54856548  0.40953423  0.28954532  1
  C  C2784  1  0.73115264  0.33443756  0.32190443  1
  C  C2785  1  0.71241189  0.13045787  0.31969036  1
  H  H2786  1  0.63269764  0.44842964  0.29524312  1
  C  C2787  1  0.66996580  0.13567517  0.32621116  1
  C  C2788  1  0.64826446  0.47043843  0.26750428  1
  C  C2789  1  0.65795941  0.37643769  0.32502472  1
  H  H2790  1  0.55317736  0.08187939  0.30960470  1
  H  H2791  1  0.63112703  0.06200073  0.30830721  1
  H  H2792  1  0.71988143  0.26385138  0.25744153  1
  C  C2793  1  0.71980108  0.13478000  0.30143761  1
  C  C2794  1  0.56554531  0.03930411  0.30222550  1
  H  H2795  1  0.53531980  0.08335193  0.26888553  1
  O  O2796  1  0.59175437  0.16029644  0.32570392  1
  O  O2797  1  0.53383047  0.36701027  0.27870521  1
  C  C2798  1  0.72288010  0.44068395  0.25895136  1
  H  H2799  1  0.70784913  0.04915546  0.28940924  1
  C  C2800  1  0.57489649  0.32145361  0.32937663  1
  H  H2801  1  0.53610730  0.24258230  0.32820937  1
  C  C2802  1  0.54690523  0.47078628  0.28806918  1
  C  C2803  1  0.70480470  0.38028714  0.32913304  1
  C  C2804  1  0.61888454  0.41635845  0.33152835  1
  H  H2805  1  0.64688200  0.24078763  0.33275841  1
  H  H2806  1  0.71610961  0.41268726  0.33846521  1
  C  C2807  1  0.54669734  0.27919079  0.33717743  1
  H  H2808  1  0.63002418  0.45120922  0.34038845  1
  H  H2809  1  0.67138249  0.13406656  0.34069812  1
  H  H2810  1  0.54900727  0.16523301  0.34799417  1
  C  C2811  1  0.58553857  0.15694590  0.34583915  1
  C  C2812  1  0.58837672  0.36802465  0.34023828  1
  H  H2813  1  0.69001101  0.31222066  0.34834450  1
  H  H2814  1  0.59155896  0.11132606  0.34981176  1
  C  C2815  1  0.64306699  0.24090820  0.34709290  1
  C  C2816  1  0.66721298  0.28315779  0.35534884  1
  C  C2817  1  0.61205683  0.20297956  0.35587311  1
  C  C2818  1  0.58363752  0.36569742  0.35868017  1
  H  H2819  1  0.59911721  0.39893518  0.36647410  1
  C  C2820  1  0.55700072  0.32010163  0.36615018  1
  C  C2821  1  0.53700248  0.27638187  0.35496185  1
  C  C2822  1  0.61195532  0.02721035  0.30140477  1
  C  C2823  1  0.54434398  0.49678941  0.36117439  1
  H  H2824  1  0.74030739  0.12524209  0.32807395  1
  H  H2825  1  0.51549871  0.24236193  0.36049846  1
  H  H2826  1  0.67580132  0.36082146  0.25704447  1
  C  C2827  1  0.73031376  0.41272411  0.27527891  1
  C  C2828  1  0.51391851  0.38115618  0.26014605  1
  C  C2829  1  0.65976511  0.28806760  0.37355839  1
  H  H2830  1  0.74126009  0.25112003  0.30667338  1
  H  H2831  1  0.61711021  0.49406926  0.26481661  1
  C  C2832  1  0.58208070  0.04059761  0.25104811  1
  C  C2833  1  0.65783209  0.06775395  0.25136038  1
  H  H2834  1  0.52226992  0.33897719  0.25297635  1
  C  C2835  1  0.60470392  0.20938943  0.37335571  1
  C  C2836  1  0.68186846  0.01064072  0.36194447  1
  H  H2837  1  0.71602783  0.02274335  0.35922006  1
  H  H2838  1  0.53085607  0.49404903  0.27681622  1
  C  C2839  1  0.68328734  0.47061390  0.25539343  1
  H  H2840  1  0.73235292  0.20918064  0.33953633  1
  C  C2841  1  0.53230706  0.45232730  0.37403166  1
  C  C2842  1  0.65442360  0.04147869  0.37433363  1
  H  H2843  1  0.69182321  0.01791882  0.31012227  1
  C  C2844  1  0.70903200  0.00710615  0.29777890  1
  C  C2845  1  0.53137882  0.00388424  0.29536745  1
  H  H2846  1  0.75411204  0.29526054  0.35776869  1
  O  O2847  1  0.99049242  0.24575300  0.27332880  1
  O  O2848  1  0.75688668  0.12983986  0.29332649  1
  H  H2849  1  0.76608893  0.46091343  0.29781918  1
  C  C2850  1  0.75817178  0.20260466  0.34983302  1
  H  H2851  1  0.77542655  0.43375672  0.33016288  1
  C  C2852  1  0.76688761  0.25214531  0.36106381  1
  H  H2853  1  0.77602957  0.10883098  0.34320313  1
  C  C2854  1  0.84026610  0.46060843  0.28358209  1
  C  C2855  1  0.77692372  0.38360007  0.27816432  1
  C  C2856  1  0.77961646  0.33629133  0.26378479  1
  H  H2857  1  0.78539097  0.36807122  0.29112479  1
  H  H2858  1  0.78285299  0.21210974  0.28188945  1
  H  H2859  1  0.79430601  0.07145427  0.30825141  1
  O  O2860  1  0.79537289  0.25452971  0.28278538  1
  O  O2861  1  0.92652221  0.34580696  0.27929021  1
  C  C2862  1  0.80147402  0.11796096  0.30352597  1
  C  C2863  1  0.84477038  0.11640095  0.29353048  1
  H  H2864  1  0.80181626  0.15005241  0.31503101  1
  C  C2865  1  0.88825926  0.13103746  0.29995810  1
  C  C2866  1  0.92559208  0.12756416  0.28902600  1
  H  H2867  1  0.95698420  0.13553220  0.29509801  1
  H  H2868  1  0.89056674  0.14032549  0.31406738  1
  C  C2869  1  0.83888565  0.09693311  0.27587516  1
  C  C2870  1  0.97228120  0.43456721  0.27304441  1
  C  C2871  1  0.94079291  0.38587738  0.27133498  1
  C  C2872  1  0.91887576  0.11019813  0.27082224  1
  H  H2873  1  0.80579464  0.08747599  0.27112061  1
  C  C2874  1  0.78794703  0.27356166  0.26640308  1
  C  C2875  1  0.87544579  0.09724204  0.26474914  1
  C  C2876  1  0.80710737  0.43745633  0.27283551  1
  Zn  Zn2877  1  0.91834001  0.26736981  0.31322276  1
  H  H2878  1  0.84556649  0.44361625  0.29710120  1
  H  H2879  1  0.76731557  0.33075734  0.32537417  1
  C  C2880  1  0.95353753  0.10670490  0.25698135  1
  O  O2881  1  0.83259130  0.32310515  0.32432567  1
  C  C2882  1  0.85796330  0.28419730  0.32771606  1
  C  C2883  1  0.94308458  0.20532156  0.32992708  1
  C  C2884  1  0.77978985  0.14746649  0.35234717  1
  H  H2885  1  0.84169451  0.23196428  0.35210270  1
  C  C2886  1  0.86655060  0.23965799  0.34106757  1
  C  C2887  1  0.90594557  0.20409842  0.34142788  1
  H  H2888  1  0.91195270  0.17188475  0.35246285  1
  H  H2889  1  0.83410224  0.04888273  0.36346579  1
  O  O2890  1  0.78107544  0.46210679  0.36108978  1
  C  C2891  1  0.80578207  0.14368255  0.36741159  1
  H  H2892  1  0.86119792  0.47718385  0.35815120  1
  C  C2893  1  0.79952032  0.46204761  0.25600216  1
  C  C2894  1  0.96452720  0.46899852  0.25776474  1
  C  C2895  1  0.78060004  0.47901753  0.32536945  1
  C  C2896  1  0.98531289  0.18068112  0.32730106  1
  H  H2897  1  0.90778506  0.03524473  0.36057020  1
  C  C2898  1  0.91652524  0.07596615  0.36803548  1
  C  C2899  1  0.83346657  0.08732743  0.37228866  1
  O  O2900  1  0.88801100  0.47394026  0.36563797  1
  H  H2901  1  0.78976091  0.19373342  0.25075334  1
  H  H2902  1  0.99194935  0.07869817  0.36387627  1
  H  H2903  1  0.88935660  0.43474713  0.37070560  1
  C  C2904  1  0.78678097  0.24232001  0.25019984  1
  C  C2905  1  0.96085838  0.09953089  0.37013342  1
  O  O2906  1  0.90132585  0.00111141  0.33275369  1
  C  C2907  1  0.77440664  0.49377025  0.30763088  1
  H  H2908  1  0.86877675  0.08343218  0.25107618  1
  O  O2909  1  0.76491907  0.05898430  0.25061156  1
  O  O2910  1  0.71410373  0.36554826  0.37549300  1
  C  C2911  1  0.50819133  0.46333801  0.49266378  1
  H  H2912  1  0.63973221  0.00315959  0.46866397  1
  C  C2913  1  0.61834975  0.49481560  0.37597768  1
  O  O2914  1  0.69001849  0.49042210  0.38739662  1
  C  C2915  1  0.60967611  0.02241322  0.37761365  1
  C  C2916  1  0.74432962  0.49244894  0.49355009  1
  H  H2917  1  0.57514678  0.02254310  0.44897931  1
  H  H2918  1  0.54942843  0.31752731  0.38039706  1
  H  H2919  1  0.70666768  0.02219522  0.48927663  1
  H  H2920  1  0.52287817  0.11054174  0.48989363  1
  C  C2921  1  0.51833306  0.09395701  0.46201062  1
  H  H2922  1  0.51965126  0.08422368  0.43456347  1
  H  H2923  1  0.51775020  0.24749078  0.40648954  1
  H  H2924  1  0.66040402  0.13683738  0.37824382  1
  H  H2925  1  0.57789520  0.18135667  0.37992760  1
  H  H2926  1  0.58912256  0.05445889  0.38477518  1
  C  C2927  1  0.68421922  0.33406449  0.38364785  1
  H  H2928  1  0.62812711  0.44312602  0.40027953  1
  C  C2929  1  0.62906194  0.25194919  0.38315598  1
  C  C2930  1  0.66703203  0.09396895  0.38494150  1
  O  O2931  1  0.62216050  0.25665299  0.40030730  1
  H  H2932  1  0.64370682  0.29750462  0.40225265  1
  O  O2933  1  0.67685665  0.34462264  0.39906501  1
  O  O2934  1  0.63736264  0.12216517  0.40034298  1
  H  H2935  1  0.70258069  0.09066458  0.38827378  1
  C  C2936  1  0.55964251  0.43559617  0.38887085  1
  H  H2937  1  0.54856879  0.40558833  0.39918750  1
  C  C2938  1  0.60421443  0.45677918  0.38966477  1
  H  H2939  1  0.57143688  0.16124471  0.41277319  1
  C  C2940  1  0.65703533  0.15081461  0.41295680  1
  H  H2941  1  0.53502796  0.41035187  0.43603739  1
  C  C2942  1  0.53007300  0.27134975  0.41779657  1
  C  C2943  1  0.51803258  0.33022246  0.42150175  1
  C  C2944  1  0.70322786  0.15839100  0.41689475  1
  H  H2945  1  0.62081737  0.38566566  0.42189873  1
  H  H2946  1  0.72839246  0.28147344  0.42524046  1
  C  C2947  1  0.54103718  0.36358535  0.43431574  1
  C  C2948  1  0.56273759  0.24218485  0.42821535  1
  C  C2949  1  0.58316211  0.17939286  0.42506669  1
  C  C2950  1  0.63387763  0.17858102  0.42698346  1
  C  C2951  1  0.64738563  0.39843580  0.43073249  1
  H  H2952  1  0.67018535  0.31017917  0.43569208  1
  C  C2953  1  0.53242803  0.12427417  0.47702855  1
  C  C2954  1  0.53249299  0.11017275  0.44508675  1
  C  C2955  1  0.65160269  0.45912846  0.43434889  1
  C  C2956  1  0.67892237  0.35616550  0.43781707  1
  C  C2957  1  0.56438452  0.17099382  0.47539203  1
  C  C2958  1  0.56572659  0.15369635  0.44307748  1
  H  H2959  1  0.58650872  0.43403109  0.47653709  1
  C  C2960  1  0.58020836  0.18305769  0.45868243  1
  H  H2961  1  0.59161048  0.36140296  0.45478524  1
  C  C2962  1  0.57356625  0.33783098  0.44479916  1
  C  C2963  1  0.58198631  0.27583347  0.44226418  1
  C  C2964  1  0.61221447  0.23633953  0.45357083  1
  H  H2965  1  0.62641965  0.25946383  0.46572690  1
  C  C2966  1  0.64870259  0.21017350  0.44148051  1
  C  C2967  1  0.69514943  0.21670958  0.44465426  1
  O  O2968  1  0.71548429  0.24446195  0.45777537  1
  H  H2969  1  0.65423167  0.37940924  0.46190335  1
  C  C2970  1  0.61143825  0.41420094  0.48460657  1
  C  C2971  1  0.64835704  0.38465588  0.47621753  1
  H  H2972  1  0.57542254  0.19356839  0.48775058  1
  H  H2973  1  0.70898080  0.33045243  0.48059717  1
  H  H2974  1  0.67192535  0.22269319  0.47893952  1
  C  C2975  1  0.68144968  0.35777437  0.48640801  1
  C  C2976  1  0.71725450  0.37308559  0.44764743  1
  C  C2977  1  0.72467073  0.43486584  0.44884184  1
  H  H2978  1  0.67117519  0.11155579  0.48161146  1
  C  C2979  1  0.71924382  0.18851101  0.43112042  1
  C  C2980  1  0.68989583  0.47522582  0.44474388  1
  C  C2981  1  0.65194200  0.13940414  0.49121852  1
  H  H2982  1  0.72749851  0.14385683  0.40747451  1
  H  H2983  1  0.69995464  0.48595323  0.47145866  1
  H  H2984  1  0.73996711  0.33842511  0.45193547  1
  H  H2985  1  0.73562973  0.16601142  0.49497440  1
  H  H2986  1  0.58962453  0.48995211  0.41989710  1
  C  C2987  1  0.65291968  0.20214015  0.48954743  1
  H  H2988  1  0.74148039  0.46138954  0.42041049  1
  H  H2989  1  0.74727399  0.39762530  0.49161144  1
  H  H2990  1  0.67156450  0.46680673  0.49131228  1
  C  C2991  1  0.54269930  0.01062452  0.49900793  1
  H  H2992  1  0.52768619  0.42260084  0.49214079  1
  H  H2993  1  0.63086093  0.02128640  0.49755750  1
  H  H2994  1  0.62686239  0.28552822  0.49836118  1
  C  C2995  1  0.99330936  0.49120910  0.41797137  1
  C  C2996  1  0.82006481  0.00703583  0.47885022  1
  O  O2997  1  0.81541152  0.01275143  0.46359158  1
  H  H2998  1  0.89932687  0.01478929  0.41387861  1
  C  C2999  1  0.91684900  0.03282197  0.42484320  1
  C  C3000  1  0.96774442  0.10969810  0.43557123  1
  C  C3001  1  0.79633195  0.24697466  0.37527041  1
  C  C3002  1  0.97203297  0.07652554  0.45202670  1
  C  C3003  1  0.82298071  0.12006379  0.40343377  1
  C  C3004  1  0.78179368  0.02066924  0.41280645  1
  H  H3005  1  0.77667336  0.26598277  0.46917128  1
  H  H3006  1  0.75603590  0.45487429  0.45414682  1
  C  C3007  1  0.78149104  0.32222956  0.41125172  1
  C  C3008  1  0.83660797  0.28674150  0.44007307  1
  O  O3009  1  0.83573551  0.15444366  0.43319655  1
  H  H3010  1  0.96490070  0.25812656  0.46262891  1
  C  C3011  1  0.82705090  0.33612703  0.41153257  1
  C  C3012  1  0.87778108  0.23799797  0.49100974  1
  C  C3013  1  0.75345233  0.12424352  0.49833997  1
  O  O3014  1  0.76199382  0.47928701  0.41163024  1
  H  H3015  1  0.80273703  0.28466285  0.38425151  1
  C  C3016  1  0.93127532  0.17812577  0.38959363  1
  O  O3017  1  0.88752583  0.47251581  0.44316333  1
  C  C3018  1  0.85356061  0.31570091  0.42584326  1
  C  C3019  1  0.93237851  0.24458342  0.46696730  1
  C  C3020  1  0.90754050  0.19917255  0.45828285  1
  H  H3021  1  0.99065895  0.35151426  0.39283468  1
  C  C3022  1  0.81922361  0.11345921  0.42191254  1
  C  C3023  1  0.88281368  0.11018988  0.37519436  1
  H  H3024  1  0.75444855  0.19373883  0.43310858  1
  Zn  Zn3025  1  0.90154567  0.46530546  0.41466534  1
  C  C3026  1  0.81382026  0.19232277  0.37884082  1
  C  C3027  1  0.79950717  0.05826030  0.42512834  1
  H  H3028  1  0.88882867  0.32690246  0.42620410  1
  Zn  Zn3029  1  0.94929239  0.33373382  0.49631581  1
  Zn  Zn3030  1  0.75027195  0.43341830  0.38704798  1
  H  H3031  1  0.75924358  0.33863445  0.40025154  1
  C  C3032  1  0.76299452  0.29306348  0.42514039  1
  H  H3033  1  0.84552338  0.21817556  0.40466500  1
  C  C3034  1  0.76656276  0.24851731  0.45597602  1
  H  H3035  1  0.85711316  0.27483312  0.45139602  1
  C  C3036  1  0.81457712  0.07599004  0.39066291  1
  C  C3037  1  0.79874859  0.04637411  0.49170962  1
  C  C3038  1  0.84173347  0.17789251  0.39575502  1
  C  C3039  1  0.76741097  0.43609236  0.49478098  1
  H  H3040  1  0.76994869  0.10339053  0.47059859  1
  C  C3041  1  0.91562346  0.26252543  0.48310960  1
  C  C3042  1  0.93627665  0.08877143  0.42330134  1
  O  O3043  1  0.98329366  0.44037881  0.41383556  1
  C  C3044  1  0.86610680  0.17945217  0.46491294  1
  C  C3045  1  0.79084328  0.02357166  0.39475462  1
  H  H3046  1  0.86252436  0.10050108  0.44973609  1
  H  H3047  1  0.81917595  0.17953382  0.48604519  1
  C  C3048  1  0.78941905  0.27457765  0.43984659  1
  C  C3049  1  0.96705148  0.14792131  0.38187642  1
  H  H3050  1  0.98398333  0.18618090  0.41946431  1
  C  C3051  1  0.98945833  0.16432737  0.43164918  1
  C  C3052  1  0.83916700  0.14063946  0.45177576  1
  H  H3053  1  0.77434399  0.19913192  0.45612790  1
  H  H3054  1  0.93288033  0.11051178  0.41047766  1
  O  O3055  1  0.81649405  0.38230447  0.38414907  1
  C  C3056  1  0.77364904  0.09401331  0.48508226  1
  H  H3057  1  0.79827520  0.04575786  0.43895568  1
  H  H3058  1  0.93816044  0.21397838  0.39907009  1
  O  O3059  1  0.88030408  0.39676803  0.39647536  1
  C  C3060  1  0.88676459  0.15955206  0.38692061  1
  H  H3061  1  0.80959721  0.12583489  0.45772266  1
  C  C3062  1  0.94935472  0.02119418  0.45427628  1
  C  C3063  1  0.85096925  0.19587684  0.48144161  1
  C  C3064  1  0.84236573  0.37502978  0.39647734  1
  H  H3065  1  0.92269483  0.18027705  0.44639441  1
  C  C3066  1  0.71088078  0.33902532  0.51976019  1
  C  C3067  1  0.69317723  0.23802633  0.53482150  1
  C  C3068  1  0.68356542  0.29804052  0.53266449  1
  C  C3069  1  0.66379106  0.21078284  0.54701768  1
  C  C3070  1  0.64492914  0.32442931  0.53919162  1
  C  C3071  1  0.63977087  0.39025800  0.53336921  1
  O  O3072  1  0.72793201  0.20984703  0.52694880  1
  H  H3073  1  0.68893139  0.14162925  0.52284915  1
  C  C3074  1  0.72214058  0.39188180  0.53120744  1
  C  C3075  1  0.68434622  0.42177347  0.53799585  1
  H  H3076  1  0.61057582  0.40862558  0.53975614  1
  C  C3077  1  0.62659291  0.23922513  0.55432208  1
  C  C3078  1  0.61171553  0.29783046  0.54993250  1
  C  C3079  1  0.60335967  0.15481800  0.51757641  1
  H  H3080  1  0.58549230  0.24868919  0.52346134  1
  C  C3081  1  0.58139924  0.11800373  0.53297133  1
  H  H3082  1  0.61000267  0.21258719  0.56368219  1
  H  H3083  1  0.66822144  0.16337593  0.55112154  1
  C  C3084  1  0.60128202  0.21759424  0.51514271  1
  O  O3085  1  0.57301383  0.32189807  0.55360055  1
  H  H3086  1  0.56546757  0.14762882  0.54303747  1
  C  C3087  1  0.54777813  0.07574604  0.52486188  1
  C  C3088  1  0.62083597  0.07849651  0.53973259  1
  C  C3089  1  0.64295834  0.39301801  0.51312273  1
  H  H3090  1  0.61430788  0.10413420  0.56752590  1
  C  C3091  1  0.54011421  0.27678480  0.56335232  1
  H  H3092  1  0.53942933  0.23137546  0.55788384  1
  C  C3093  1  0.63302808  0.07729653  0.55798570  1
  H  H3094  1  0.57726986  0.43764387  0.50910800  1
  H  H3095  1  0.67479885  0.35398149  0.56989135  1
  C  C3096  1  0.61921508  0.04874000  0.50901546  1
  H  H3097  1  0.56441905  0.27161809  0.57457249  1
  H  H3098  1  0.57017515  0.42618404  0.57381663  1
  C  C3099  1  0.72439917  0.14230270  0.52748119  1
  H  H3100  1  0.65349501  0.44423205  0.58127538  1
  C  C3101  1  0.70155292  0.36786247  0.57933428  1
  O  O3102  1  0.56332381  0.03715415  0.58953149  1
  C  C3103  1  0.55825857  0.45697595  0.58422985  1
  H  H3104  1  0.62481788  0.33835166  0.60211862  1
  C  C3105  1  0.64714815  0.36973381  0.60799705  1
  H  H3106  1  0.61335035  0.03215741  0.60357962  1
  H  H3107  1  0.50729971  0.38999293  0.56681910  1
  C  C3108  1  0.68012977  0.36520715  0.50494625  1
  C  C3109  1  0.62450742  0.11773458  0.50535302  1
  C  C3110  1  0.64079844  0.04025144  0.52725668  1
  C  C3111  1  0.68857085  0.47313333  0.54865313  1
  C  C3112  1  0.53547184  0.42510775  0.59994653  1
  C  C3113  1  0.52884804  0.36451091  0.60061426  1
  H  H3114  1  0.54497444  0.33874884  0.59020852  1
  C  C3115  1  0.62653194  0.23748043  0.50098932  1
  C  C3116  1  0.55573715  0.20935391  0.60113236  1
  O  O3117  1  0.55707421  0.17870154  0.59063118  1
  C  C3118  1  0.56717375  0.04423942  0.51110798  1
  C  C3119  1  0.69094584  0.37199697  0.59794859  1
  H  H3120  1  0.62938759  0.41495166  0.60909947  1
  H  H3121  1  0.73950501  0.31335545  0.51489399  1
  C  C3122  1  0.51793417  0.46481427  0.61299600  1
  C  C3123  1  0.64150309  0.48088154  0.58988212  1
  H  H3124  1  0.69877594  0.25359737  0.57536004  1
  H  H3125  1  0.68239996  0.04514800  0.57666756  1
  C  C3126  1  0.67001469  0.04319896  0.56272482  1
  C  C3127  1  0.59553199  0.00727724  0.59218002  1
  C  C3128  1  0.72924309  0.38079526  0.60882996  1
  H  H3129  1  0.72584269  0.12270183  0.54099713  1
  H  H3130  1  0.65996580  0.49944804  0.55290536  1
  C  C3131  1  0.74328758  0.37138677  0.57257131  1
  H  H3132  1  0.72378617  0.38924810  0.62272953  1
  C  C3133  1  0.59750008  0.48895169  0.59346737  1
  C  C3134  1  0.50097885  0.34110450  0.61445541  1
  H  H3135  1  0.51162149  0.35139645  0.54242040  1
  H  H3136  1  0.74832547  0.36406504  0.55858807  1
  H  H3137  1  0.50659933  0.25063709  0.52457280  1
  H  H3138  1  0.58167329  0.37986290  0.62386909  1
  C  C3139  1  0.72978679  0.23171073  0.58076848  1
  H  H3140  1  0.72693314  0.24084613  0.59469345  1
  C  C3141  1  0.50145076  0.07417414  0.52987471  1
  C  C3142  1  0.69642437  0.01565597  0.54956956  1
  C  C3143  1  0.74087131  0.16809183  0.57556922  1
  H  H3144  1  0.70722900  0.47795573  0.62271006  1
  C  C3145  1  0.68285182  0.01438239  0.53173610  1
  O  O3146  1  0.50704216  0.46175935  0.54907206  1
  C  C3147  1  0.73206365  0.49312819  0.55252027  1
  C  C3148  1  0.60937398  0.42007557  0.50293109  1
  C  C3149  1  0.76606874  0.41329683  0.53467133  1
  C  C3150  1  0.76950311  0.46227092  0.54585381  1
  C  C3151  1  0.75425549  0.10503267  0.51612210  1
  C  C3152  1  0.75391303  0.03556215  0.61511175  1
  H  H3153  1  0.75823772  0.08169512  0.58983910  1
  Zn  Zn3154  1  0.78449305  0.23225983  0.56336468  1
  H  H3155  1  0.77395188  0.09094172  0.56397535  1
  C  C3156  1  0.76774917  0.13820097  0.56605811  1
  H  H3157  1  0.78141219  0.04372119  0.53657930  1
  C  C3158  1  0.77922953  0.05440881  0.52240183  1
  H  H3159  1  0.79489172  0.39368282  0.52910941  1
  O  O3160  1  0.83432556  0.36120995  0.56122853  1
  C  C3161  1  0.82580915  0.37033802  0.57740729  1
  Zn  Zn3162  1  0.88880515  0.37061757  0.54471693  1
  O  O3163  1  0.89061384  0.27938965  0.53865862  1
  C  C3164  1  0.91779987  0.18114177  0.53923505  1
  C  C3165  1  0.95136867  0.13907525  0.54428238  1
  C  C3166  1  0.90849488  0.23837275  0.54749854  1
  O  O3167  1  0.92120369  0.24836517  0.56290808  1
  C  C3168  1  0.88344357  0.16398762  0.52619960  1
  Zn  Zn3169  1  0.94864576  0.14230861  0.51654482  1
  C  C3170  1  0.88321957  0.10456855  0.51654321  1
  H  H3171  1  0.85292383  0.19471884  0.52493314  1
  C  C3172  1  0.94860747  0.07456015  0.53567966  1
  O  O3173  1  0.95176901  0.36373540  0.55780014  1
  H  H3174  1  0.95407139  0.33269786  0.54819474  1
  C  C3175  1  0.88064984  0.46354827  0.51427224  1
  O  O3176  1  0.88952516  0.41139595  0.51855967  1
  C  C3177  1  0.91503991  0.05881306  0.52315868  1
  H  H3178  1  0.84156292  0.06829808  0.57065949  1
  H  H3179  1  0.88249918  0.04561042  0.54438978  1
  H  H3180  1  0.96232509  0.14012958  0.55834814  1
  H  H3181  1  0.85536676  0.09168546  0.50794310  1
  Zn  Zn3182  1  0.91489771  0.31927562  0.58134995  1
  O  O3183  1  0.85396120  0.36155872  0.58913008  1
  C  C3184  1  0.77910414  0.37418245  0.58408312  1
  C  C3185  1  0.96535975  0.13358113  0.61520497  1
  H  H3186  1  0.88814169  0.28814950  0.60544649  1
  H  H3187  1  0.93811565  0.16828384  0.61515936  1
  O  O3188  1  0.89929360  0.24459396  0.60466806  1
  C  C3189  1  0.77246571  0.38302353  0.60201811  1
  H  H3190  1  0.80268783  0.39174252  0.61039889  1
  O  O3191  1  0.93779845  0.07860462  0.62177338  1
  H  H3192  1  0.89662241  0.23711009  0.59287423  1
  C  C3193  1  0.77736762  0.05058203  0.59793339  1
  H  H3194  1  0.81267169  0.06476866  0.59897268  1
  C  C3195  1  0.83651109  0.47807515  0.50594677  1
  C  C3196  1  0.83185937  0.02808692  0.56370324  1
  C  C3197  1  0.80194128  0.02607321  0.50951092  1
  O  O3198  1  0.95600587  0.37356114  0.59905402  1
  H  H3199  1  0.97201794  0.03846673  0.53935562  1
  H  H3200  1  0.87134225  0.01301525  0.62210383  1
  C  C3201  1  0.99922594  0.30003078  0.51055427  1
  C  C3202  1  0.99461254  0.13623151  0.59921805  1
  H  H3203  1  0.82963661  0.49484697  0.58499294  1
  H  H3204  1  0.99532352  0.47095981  0.59807512  1
  C  C3205  1  0.98622423  0.35856659  0.60973691  1
  H  H3206  1  0.99587593  0.04201701  0.59812488  1
  C  C3207  1  0.85683205  0.01381985  0.54955227  1
  H  H3208  1  0.86465577  0.26180645  0.50307900  1
  O  O3209  1  0.98660129  0.30793584  0.61551972  1
  H  H3210  1  0.80317869  0.47970937  0.54724300  1
  C  C3211  1  0.81055154  0.42892731  0.50064815  1
  H  H3212  1  0.82493313  0.38424005  0.50056575  1
  H  H3213  1  0.50693754  0.49434291  0.65843524  1
  O  O3214  1  0.64319896  0.36129133  0.62877014  1
  Zn  Zn3215  1  0.53730878  0.12294136  0.63496883  1
  O  O3216  1  0.51858430  0.18105097  0.72423152  1
  C  C3217  1  0.72328736  0.48959329  0.63564037  1
  C  C3218  1  0.60463604  0.36619609  0.63537486  1
  H  H3219  1  0.62936510  0.22494308  0.68768170  1
  C  C3220  1  0.70753206  0.44486659  0.66919430  1
  H  H3221  1  0.62358725  0.23354668  0.65583690  1
  H  H3222  1  0.52661351  0.10131697  0.73659023  1
  C  C3223  1  0.55054052  0.04396690  0.64843336  1
  H  H3224  1  0.65010431  0.33547835  0.66545696  1
  C  C3225  1  0.61290528  0.33676478  0.66579495  1
  C  C3226  1  0.58079886  0.08197415  0.65456689  1
  C  C3227  1  0.58811392  0.14743077  0.65204740  1
  C  C3228  1  0.61293372  0.18888268  0.66232077  1
  C  C3229  1  0.60818550  0.19043675  0.68099457  1
  Zn  Zn3230  1  0.63420120  0.10899805  0.67136969  1
  C  C3231  1  0.73505278  0.06414520  0.64470874  1
  C  C3232  1  0.58461830  0.35847399  0.65178987  1
  H  H3233  1  0.57350003  0.19299120  0.68586113  1
  O  O3234  1  0.69101311  0.02861143  0.67563447  1
  C  C3235  1  0.57618549  0.05490092  0.71292113  1
  H  H3236  1  0.56818069  0.07989900  0.70169427  1
  H  H3237  1  0.60187839  0.13206000  0.72619842  1
  C  C3238  1  0.59555397  0.08379259  0.72723790  1
  H  H3239  1  0.64469184  0.16831214  0.71845231  1
  C  C3240  1  0.66323660  0.19032627  0.72959828  1
  C  C3241  1  0.60256944  0.04974267  0.74257317  1
  H  H3242  1  0.73274471  0.09960767  0.65515920  1
  C  C3243  1  0.71050555  0.18690157  0.73231280  1
  O  O3244  1  0.72367842  0.13227886  0.70687019  1
  C  C3245  1  0.71037621  0.46127792  0.65168988  1
  H  H3246  1  0.54768612  0.36371716  0.65260460  1
  C  C3247  1  0.59086651  0.31915639  0.68141703  1
  H  H3248  1  0.60364793  0.23002880  0.73995849  1
  C  C3249  1  0.63942528  0.22545300  0.74126242  1
  O  O3250  1  0.57622644  0.30094928  0.69414287  1
  H  H3251  1  0.68777683  0.41567751  0.69505887  1
  C  C3252  1  0.71323358  0.43831756  0.68683493  1
  C  C3253  1  0.73999995  0.15440646  0.71964055  1
  H  H3254  1  0.74190059  0.45739716  0.69383743  1
  C  C3255  1  0.73061779  0.21599042  0.74678627  1
  H  H3256  1  0.73841230  0.24882333  0.68498090  1
  C  C3257  1  0.55078524  0.47432547  0.72828036  1
  C  C3258  1  0.71439158  0.00869515  0.64659443  1
  O  O3259  1  0.74712669  0.41610870  0.73612924  1
  C  C3260  1  0.51073226  0.10400159  0.74991710  1
  H  H3261  1  0.98345876  0.14479994  0.62787806  1
  C  C3262  1  0.95991733  0.03259196  0.62753411  1
  H  H3263  1  0.76695523  0.12514685  0.62671693  1
  C  C3264  1  0.99438369  0.49515225  0.70812014  1
  H  H3265  1  0.84460025  0.47448273  0.72670169  1
  O  O3266  1  0.82236440  0.05522991  0.74370709  1
  O  O3267  1  0.78264436  0.15763994  0.72026821  1
  C  C3268  1  0.80720697  0.33902811  0.74221150  1
  O  O3269  1  0.88623206  0.13259985  0.66024474  1
  H  H3270  1  0.99808276  0.46848068  0.66982431  1
  C  C3271  1  0.90055960  0.30813388  0.69604096  1
  C  C3272  1  0.84301430  0.27392156  0.67416044  1
  H  H3273  1  0.80964946  0.00700011  0.64649692  1
  C  C3274  1  0.80889629  0.27653295  0.68632455  1
  H  H3275  1  0.75806186  0.49136685  0.72148796  1
  C  C3276  1  0.98874181  0.48861270  0.64249784  1
  C  C3277  1  0.75235293  0.07925024  0.62881649  1
  C  C3278  1  0.94341650  0.47282845  0.64498516  1
  O  O3279  1  0.89969720  0.49353313  0.71143817  1
  C  C3280  1  0.93150304  0.05403372  0.67550947  1
  C  C3281  1  0.84675692  0.48882558  0.71240860  1
  H  H3282  1  0.93839046  0.28938999  0.73272208  1
  C  C3283  1  0.94417357  0.24527690  0.73717395  1
  Zn  Zn3284  1  0.82096854  0.07827076  0.71597362  1
  C  C3285  1  0.94304287  0.32872801  0.70008320  1
  H  H3286  1  0.84282017  0.44843947  0.70363615  1
  H  H3287  1  0.83589154  0.26138579  0.66061602  1
  H  H3288  1  0.94911074  0.35318936  0.71250386  1
  C  C3289  1  0.76749361  0.26860309  0.69154238  1
  Zn  Zn3290  1  0.78338192  0.29579411  0.71629945  1
  O  O3291  1  0.89306659  0.10255889  0.71286307  1
  Zn  Zn3292  1  0.97982252  0.06607552  0.69389022  1
  C  C3293  1  0.92205446  0.45667394  0.72107407  1
  C  C3294  1  0.88904136  0.28621854  0.67897340  1
  C  C3295  1  0.97692423  0.32606217  0.68719486  1
  H  H3296  1  0.87406214  0.40522018  0.73644747  1
  C  C3297  1  0.91706517  0.08817498  0.72565025  1
  C  C3298  1  0.90096481  0.08326504  0.66323516  1
  Zn  Zn3299  1  0.96940851  0.27566064  0.64407698  1
  C  C3300  1  0.90901456  0.41500047  0.73386842  1
  C  C3301  1  0.77212227  0.37567701  0.73521773  1
  C  C3302  1  0.98375809  0.37753497  0.74222993  1
  H  H3303  1  0.92714849  0.43169355  0.64068490  1
  H  H3304  1  0.87542828  0.31573846  0.70597310  1
  C  C3305  1  0.92376929  0.28419727  0.66610112  1
  C  C3306  1  0.92521559  0.19491476  0.72927282  1
  C  C3307  1  0.93705662  0.37869208  0.74328331  1
  C  C3308  1  0.96392710  0.30314923  0.67067146  1
  O  O3309  1  0.91943110  0.03537324  0.73073874  1
  H  H3310  1  0.90347838  0.19771706  0.71845651  1
  H  H3311  1  0.87540819  0.05732549  0.65502213  1
  C  C3312  1  0.97046455  0.45372609  0.72062936  1
  C  C3313  1  0.93721433  0.13933178  0.73589908  1
  H  H3314  1  0.76699533  0.21161188  0.74840857  1
  C  C3315  1  0.63415943  0.10038631  0.79582884  1
  H  H3316  1  0.62183361  0.13638655  0.78663380  1
  O  O3317  1  0.54813576  0.16720971  0.81631148  1
  C  C3318  1  0.64183331  0.04200932  0.78946886  1
  H  H3319  1  0.59771394  0.26999020  0.77053428  1
  C  C3320  1  0.62073228  0.07073334  0.76016849  1
  H  H3321  1  0.59946311  0.10699726  0.76461883  1
  H  H3322  1  0.63026277  0.33555340  0.76473342  1
  C  C3323  1  0.63218932  0.28688408  0.76960085  1
  O  O3324  1  0.64924170  0.30863095  0.78766684  1
  C  C3325  1  0.67316775  0.27594759  0.79864211  1
  H  H3326  1  0.67915523  0.19905461  0.78258308  1
  C  C3327  1  0.63776107  0.11611351  0.81309845  1
  C  C3328  1  0.68569443  0.21733732  0.79524639  1
  H  H3329  1  0.65622352  0.38325471  0.81621832  1
  C  C3330  1  0.68936632  0.29601380  0.81527857  1
  H  H3331  1  0.62949854  0.16317753  0.81468215  1
  C  C3332  1  0.71046600  0.18073462  0.80599591  1
  H  H3333  1  0.65566282  0.08802169  0.75859884  1
  C  C3334  1  0.52212866  0.14640964  0.82643595  1
  C  C3335  1  0.64430078  0.07900359  0.82808837  1
  C  C3336  1  0.72370140  0.19868469  0.82296615  1
  H  H3337  1  0.71715827  0.13656474  0.80158425  1
  C  C3338  1  0.70560513  0.24817371  0.75858345  1
  O  O3339  1  0.63490161  0.02224050  0.77347722  1
  Zn  Zn3340  1  0.53950902  0.06765529  0.83945945  1
  C  C3341  1  0.67753993  0.35534554  0.82451248  1
  C  C3342  1  0.71530928  0.25986877  0.82598810  1
  H  H3343  1  0.60546425  0.16158733  0.83427717  1
  H  H3344  1  0.58998636  0.37854713  0.83954817  1
  C  C3345  1  0.65556508  0.33522949  0.84234674  1
  H  H3346  1  0.55116368  0.22284103  0.84772515  1
  C  C3347  1  0.62441296  0.15841259  0.84716994  1
  O  O3348  1  0.64022298  0.09217899  0.84452798  1
  H  H3349  1  0.65591606  0.18325731  0.84651412  1
  C  C3350  1  0.59936070  0.17565956  0.86376315  1
  C  C3351  1  0.55985305  0.21134777  0.86106423  1
  C  C3352  1  0.68196565  0.30183253  0.85398480  1
  C  C3353  1  0.61129653  0.34901479  0.84721980  1
  C  C3354  1  0.65594007  0.02300823  0.82064464  1
  C  C3355  1  0.73099100  0.45408586  0.78215549  1
  H  H3356  1  0.70254351  0.42103944  0.78419492  1
  H  H3357  1  0.73530685  0.06591822  0.83992343  1
  C  C3358  1  0.51148387  0.05353217  0.76053188  1
  C  C3359  1  0.54524393  0.46042918  0.86180138  1
  C  C3360  1  0.59674392  0.33269442  0.86416474  1
  C  C3361  1  0.72531331  0.28339365  0.84464942  1
  C  C3362  1  0.65427961  0.00222337  0.80356930  1
  H  H3363  1  0.73166538  0.08215285  0.81878465  1
  H  H3364  1  0.74308345  0.47063194  0.85423368  1
  C  C3365  1  0.65899188  0.25193028  0.75638418  1
  H  H3366  1  0.72356385  0.27014719  0.76940807  1
  C  C3367  1  0.53067774  0.45370253  0.84458800  1
  H  H3368  1  0.55264739  0.10048545  0.86946351  1
  C  C3369  1  0.72477495  0.37858139  0.82853269  1
  H  H3370  1  0.54752056  0.47561491  0.81730344  1
  C  C3371  1  0.55849402  0.47736403  0.83074826  1
  O  O3372  1  0.74591044  0.16306179  0.83398736  1
  H  H3373  1  0.73169896  0.45477401  0.81253447  1
  C  C3374  1  0.72376135  0.45744080  0.86631733  1
  C  C3375  1  0.68232989  0.48364533  0.86936857  1
  H  H3376  1  0.68658576  0.02189012  0.87460861  1
  O  O3377  1  0.65056036  0.48263658  0.80075481  1
  C  C3378  1  0.74803831  0.42804168  0.82222517  1
  H  H3379  1  0.52413746  0.44305229  0.87258237  1
  H  H3380  1  0.50963514  0.01405809  0.80375645  1
  C  C3381  1  0.58599326  0.48911779  0.86575680  1
  H  H3382  1  0.74670510  0.25073495  0.85293089  1
  C  C3383  1  0.74989916  0.34308258  0.84121525  1
  H  H3384  1  0.56336726  0.33909044  0.86888364  1
  C  C3385  1  0.66887036  0.29140541  0.87175198  1
  H  H3386  1  0.51293130  0.27361519  0.87348029  1
  H  H3387  1  0.52583723  0.01378218  0.75553017  1
  C  C3388  1  0.99524990  0.44114807  0.83487333  1
  H  H3389  1  0.99576086  0.34092380  0.87125460  1
  H  H3390  1  0.98975277  0.13746818  0.85208879  1
  C  C3391  1  0.75369567  0.09283158  0.82986272  1
  H  H3392  1  0.76902144  0.11572529  0.78849820  1
  C  C3393  1  0.99164980  0.47233277  0.80447643  1
  C  C3394  1  0.76711474  0.44427111  0.77145134  1
  H  H3395  1  0.77033330  0.40169026  0.76374561  1
  C  C3396  1  0.93911290  0.03876281  0.82846156  1
  H  H3397  1  0.93069892  0.11024539  0.79693787  1
  C  C3398  1  0.82553725  0.16384151  0.79696718  1
  C  C3399  1  0.87043859  0.17981824  0.79312905  1
  C  C3400  1  0.88784273  0.31678598  0.79162542  1
  C  C3401  1  0.93045139  0.30233899  0.79861650  1
  C  C3402  1  0.89773089  0.20585048  0.80799426  1
  C  C3403  1  0.80165065  0.13248817  0.78471739  1
  H  H3404  1  0.81130171  0.17320279  0.81011959  1
  C  C3405  1  0.88863225  0.16655167  0.77639384  1
  H  H3406  1  0.92205112  0.17773292  0.77259988  1
  C  C3407  1  0.87791385  0.36725247  0.78266209  1
  H  H3408  1  0.86362692  0.28143571  0.79209483  1
  C  C3409  1  0.90701891  0.41692727  0.78014382  1
  C  C3410  1  0.86302467  0.13170719  0.76540973  1
  O  O3411  1  0.93714225  0.25108918  0.80633757  1
  C  C3412  1  0.95898095  0.35264472  0.79696829  1
  C  C3413  1  0.94850871  0.40372771  0.78765109  1
  C  C3414  1  0.81943959  0.11479505  0.76848378  1
  H  H3415  1  0.84421751  0.37031823  0.77735038  1
  C  C3416  1  0.95389717  0.08580685  0.78949321  1
  H  H3417  1  0.87476276  0.23054011  0.81671632  1
  H  H3418  1  0.91402741  0.16979889  0.81597153  1
  H  H3419  1  0.90603983  0.36419343  0.81851111  1
  C  C3420  1  0.79586759  0.07472075  0.75607348  1
  C  C3421  1  0.89756922  0.45117953  0.82790862  1
  C  C3422  1  0.80089267  0.07621454  0.82660849  1
  H  H3423  1  0.96199569  0.31520490  0.76643025  1
  C  C3424  1  0.94017899  0.03494152  0.78036456  1
  O  O3425  1  0.89631844  0.46634545  0.77208167  1
  C  C3426  1  0.88995661  0.05498130  0.82626187  1
  C  C3427  1  0.90882305  0.39041496  0.83002672  1
  C  C3428  1  0.82979396  0.11548918  0.83577433  1
  C  C3429  1  0.79289037  0.44162705  0.82764795  1
  O  O3430  1  0.96191230  0.07955255  0.83503357  1
  H  H3431  1  0.84632286  0.42391223  0.84688211  1
  C  C3432  1  0.81330499  0.41116531  0.84153845  1
  H  H3433  1  0.92101424  0.31388202  0.84861066  1
  C  C3434  1  0.91688156  0.36337639  0.84640378  1
  H  H3435  1  0.81541696  0.15218578  0.84403043  1
  C  C3436  1  0.79147731  0.35786743  0.84762920  1
  C  C3437  1  0.87473222  0.10393447  0.83543433  1
  C  C3438  1  0.90777978  0.46621097  0.85881956  1
  H  H3439  1  0.80869584  0.32790877  0.85617482  1
  H  H3440  1  0.89607626  0.13505041  0.84366201  1
  H  H3441  1  0.80022275  0.22996317  0.86503859  1
  C  C3442  1  0.91989466  0.40545128  0.86003949  1
  C  C3443  1  0.87259320  0.23723339  0.84659823  1
  H  H3444  1  0.90628157  0.02426233  0.78100218  1
  C  C3445  1  0.81650343  0.02602131  0.81682947  1
  O  O3446  1  0.91021979  0.22780006  0.84956665  1
  C  C3447  1  0.98682662  0.44861620  0.78547974  1
  C  C3448  1  0.98205924  0.17427801  0.75801540  1
  O  O3449  1  0.83516316  0.24459843  0.84325398  1
  C  C3450  1  0.98950791  0.28901506  0.76024148  1
  C  C3451  1  0.97309290  0.00113420  0.77132212  1
  H  H3452  1  0.84259143  0.43929354  0.75352094  1
  H  H3453  1  0.96025490  0.22445319  0.86929810  1
  C  C3454  1  0.99729201  0.42698501  0.81715643  1
  C  C3455  1  0.97226917  0.23262733  0.75165002  1
  C  C3456  1  0.84681337  0.47410891  0.76325830  1
  H  H3457  1  0.98258093  0.48576371  0.77583027  1
  H  H3458  1  0.87922224  0.12008836  0.75240914  1
  H  H3459  1  0.76139847  0.13294456  0.87066718  1
  C  C3460  1  0.99639356  0.21602737  0.86909029  1
  C  C3461  1  0.80184952  0.48509535  0.77207804  1
  O  O3462  1  0.77382720  0.00921953  0.87041588  1
  O  O3463  1  0.75791343  0.06216217  0.75827531  1
  C  C3464  1  0.86163739  0.01691190  0.81698574  1
  C  C3465  1  0.89948300  0.49099061  0.84231270  1
  H  H3466  1  0.88942140  0.46715828  0.81490864  1
  H  H3467  1  0.99627913  0.40530092  0.84419145  1
  H  H3468  1  0.80779949  0.48054837  0.82171663  1
  H  H3469  1  0.99811862  0.14746683  0.81462264  1
  H  H3470  1  0.92468823  0.34584655  0.75248118  1
  C  C3471  1  0.96462325  0.12575657  0.75025472  1
  H  H3472  1  0.97133706  0.07907794  0.75424770  1
  O  O3473  1  0.83462488  0.32924941  0.75232420  1
  C  C3474  1  0.52382710  0.07852046  0.87637665  1
  C  C3475  1  0.60978658  0.49362234  0.88391677  1
  C  C3476  1  0.52309558  0.42958516  0.91916579  1
  O  O3477  1  0.54918378  0.42634287  0.93077631  1
  C  C3478  1  0.62472141  0.30643944  0.87660598  1
  C  C3479  1  0.53862192  0.23856111  0.87518152  1
  C  C3480  1  0.50496588  0.05805536  0.92377242  1
  H  H3481  1  0.69317967  0.27230834  0.88089745  1
  C  C3482  1  0.73851887  0.41578896  0.87917932  1
  C  C3483  1  0.50432458  0.27788848  0.96410326  1
  H  H3484  1  0.64471186  0.12666264  0.88030396  1
  C  C3485  1  0.52381910  0.33521590  0.96727545  1
  H  H3486  1  0.57030886  0.46695468  0.97164427  1
  C  C3487  1  0.58237516  0.04086369  0.97490377  1
  O  O3488  1  0.55123238  0.28345333  0.92133098  1
  C  C3489  1  0.61390367  0.15246618  0.87965551  1
  H  H3490  1  0.61200449  0.29464935  0.88956053  1
  C  C3491  1  0.52660172  0.08388767  0.89460827  1
  H  H3492  1  0.55674988  0.10238332  0.90068453  1
  C  C3493  1  0.55799844  0.22538457  0.89215188  1
  C  C3494  1  0.59380073  0.17964998  0.89462373  1
  H  H3495  1  0.61496334  0.05511577  0.89188004  1
  C  C3496  1  0.66517280  0.41036733  0.89378761  1
  C  C3497  1  0.63340174  0.05334685  0.90410487  1
  C  C3498  1  0.71037127  0.39099779  0.89205262  1
  H  H3499  1  0.63946612  0.38866899  0.90192048  1
  C  C3500  1  0.65451695  0.45912599  0.88248399  1
  C  C3501  1  0.55267644  0.25921641  0.90798056  1
  C  C3502  1  0.60886204  0.16432476  0.91188439  1
  H  H3503  1  0.72065515  0.35086703  0.89971577  1
  H  H3504  1  0.53918237  0.07562773  0.92606479  1
  C  C3505  1  0.63038126  0.11039436  0.91592802  1
  H  H3506  1  0.56826919  0.05767555  0.96254856  1
  H  H3507  1  0.60398804  0.19792360  0.92271105  1
  C  C3508  1  0.65922411  0.41576796  0.97677086  1
  C  C3509  1  0.63144042  0.39215652  0.94215521  1
  H  H3510  1  0.62126464  0.38252091  0.92885917  1
  C  C3511  1  0.62620505  0.35073686  0.95545594  1
  H  H3512  1  0.64297681  0.19384155  0.94067643  1
  C  C3513  1  0.65671264  0.14748404  0.94426143  1
  C  C3514  1  0.65106356  0.10071011  0.93232771  1
  O  O3515  1  0.67692087  0.15593642  0.95916914  1
  H  H3516  1  0.60992190  0.30765868  0.95264483  1
  H  H3517  1  0.55824639  0.33951545  0.97257586  1
  C  C3518  1  0.63759482  0.36499729  0.97242399  1
  C  C3519  1  0.70246824  0.21143535  0.95782214  1
  H  H3520  1  0.69561595  0.24140790  0.98316231  1
  C  C3521  1  0.71090170  0.25136057  0.97055927  1
  H  H3522  1  0.63067939  0.11248501  0.97912421  1
  C  C3523  1  0.65641073  0.44462561  0.94672976  1
  C  C3524  1  0.61576595  0.07091495  0.98406533  1
  C  C3525  1  0.67014606  0.45815259  0.96383180  1
  C  C3526  1  0.62787376  0.31987882  0.98764527  1
  O  O3527  1  0.61408858  0.27119517  0.98375894  1
  H  H3528  1  0.66909830  0.42145490  0.99053076  1
  H  H3529  1  0.71995948  0.07040032  0.98064650  1
  H  H3530  1  0.71564405  0.14143492  0.93278923  1
  C  C3531  1  0.72495503  0.22724897  0.94203395  1
  C  C3532  1  0.67656781  0.03886843  0.93474813  1
  C  C3533  1  0.68239184  0.03739472  0.90192702  1
  C  C3534  1  0.70587574  0.02937999  0.88633732  1
  H  H3535  1  0.52358306  0.23801621  0.96626861  1
  H  H3536  1  0.67010267  0.46038865  0.91945776  1
  H  H3537  1  0.69662728  0.03948995  0.94667120  1
  C  C3538  1  0.70608834  0.03450973  0.91841927  1
  H  H3539  1  0.73684045  0.33449614  0.97959584  1
  C  C3540  1  0.73330761  0.30630840  0.96812537  1
  H  H3541  1  0.66037525  0.01933845  0.96870483  1
  C  C3542  1  0.66927579  0.48716811  0.93155104  1
  C  C3543  1  0.72833416  0.18502207  0.92862663  1
  H  H3544  1  0.72739219  0.11068603  0.89727565  1
  C  C3545  1  0.74559214  0.15277619  0.89723932  1
  C  C3546  1  0.74029311  0.04106895  0.97263026  1
  H  H3547  1  0.74295843  0.47011775  0.98946299  1
  H  H3548  1  0.58902993  0.47926769  0.89488665  1
  H  H3549  1  0.50285620  0.42928707  0.96898004  1
  C  C3550  1  0.61977297  0.00178797  0.91663037  1
  C  C3551  1  0.74296760  0.28603853  0.93880124  1
  C  C3552  1  0.74405774  0.19359272  0.91152271  1
  C  C3553  1  0.74640067  0.32890461  0.95247324  1
  C  C3554  1  0.50542383  0.20161985  0.99852554  1
  C  C3555  1  0.63633989  0.04286630  0.99868955  1
  C  C3556  1  0.85188789  0.49543018  0.94868400  1
  O  O3557  1  0.93329231  0.01023161  0.87625498  1
  H  H3558  1  0.81897665  0.28427034  0.99471866  1
  H  H3559  1  0.80441235  0.00143577  0.87547777  1
  C  C3560  1  0.90959018  0.49686166  0.87700951  1
  H  H3561  1  0.77404118  0.03799897  0.92942963  1
  C  C3562  1  0.88508922  0.17889771  0.88291768  1
  O  O3563  1  0.93778977  0.02500656  0.97107254  1
  H  H3564  1  0.86910676  0.31026039  0.89875844  1
  C  C3565  1  0.91783874  0.48221703  0.93047878  1
  H  H3566  1  0.79236419  0.10687383  0.96690189  1
  C  C3567  1  0.90382381  0.23684672  0.93089685  1
  O  O3568  1  0.94234936  0.28724250  0.95223574  1
  C  C3569  1  0.80434030  0.02233051  0.95433070  1
  C  C3570  1  0.76086653  0.25370780  0.90744221  1
  C  C3571  1  0.87061859  0.35745343  0.90417165  1
  H  H3572  1  0.79425226  0.30895566  0.88871675  1
  C  C3573  1  0.78191716  0.22106110  0.87747020  1
  H  H3574  1  0.94466756  0.45440525  0.92471344  1
  Zn  Zn3575  1  0.91575013  0.09451367  0.88557723  1
  C  C3576  1  0.89598049  0.16305402  0.99813980  1
  C  C3577  1  0.90942674  0.32735025  0.98402036  1
  H  H3578  1  0.89123907  0.04008732  0.99210017  1
  C  C3579  1  0.84471826  0.37420914  0.97586165  1
  C  C3580  1  0.88063786  0.45958774  0.89013586  1
  H  H3581  1  0.89735792  0.42035897  0.95131692  1
  C  C3582  1  0.75207623  0.02363169  0.88565328  1
  H  H3583  1  0.77484709  0.40366185  0.87995736  1
  C  C3584  1  0.90495782  0.27436538  0.94667400  1
  C  C3585  1  0.89553926  0.16964832  0.90134163  1
  H  H3586  1  0.80857245  0.01369866  0.90195921  1
  Zn  Zn3587  1  0.99230881  0.02643208  0.98489131  1
  H  H3588  1  0.93874493  0.33578843  0.87949996  1
  C  C3589  1  0.93264503  0.38453039  0.87889196  1
  C  C3590  1  0.75360699  0.03598516  0.91808310  1
  C  C3591  1  0.82194365  0.38340899  0.90993136  1
  C  C3592  1  0.77751967  0.06358794  0.96422664  1
  C  C3593  1  0.78050214  0.26449424  0.89110106  1
  H  H3594  1  0.82628669  0.15663592  0.91085336  1
  O  O3595  1  0.76418288  0.38738905  0.95125744  1
  C  C3596  1  0.81357726  0.44544275  0.90827168  1
  H  H3597  1  0.89497975  0.34944132  0.91484580  1
  C  C3598  1  0.77406460  0.02441077  0.90188049  1
  O  O3599  1  0.87928428  0.15119636  0.98336243  1
  H  H3600  1  0.90397652  0.21718027  0.87777286  1
  Zn  Zn3601  1  0.95617436  0.25730071  0.98076177  1
  H  H3602  1  0.84893246  0.18221835  0.87838697  1
  Zn  Zn3603  1  0.92044998  0.10509368  0.96271507  1
  H  H3604  1  0.97993707  0.30814399  0.89276537  1
  C  C3605  1  0.95597919  0.48567790  0.88455812  1
  C  C3606  1  0.89326326  0.40028050  0.89189023  1
  C  C3607  1  0.79155963  0.34437059  0.91675597  1
  C  C3608  1  0.86119415  0.21383144  0.92735627  1
  C  C3609  1  0.76417162  0.29719551  0.92173443  1
  O  O3610  1  0.86523415  0.08820004  0.94564727  1
  H  H3611  1  0.82935554  0.47253966  0.95736976  1
  H  H3612  1  0.78483575  0.46764005  0.91417970  1
  O  O3613  1  0.86948909  0.29364206  0.95492625  1
  H  H3614  1  0.81619321  0.37770017  0.96680396  1
  H  H3615  1  0.75342190  0.40027001  0.94070450  1
  C  C3616  1  0.94136790  0.22835313  0.92021964  1
  O  O3617  1  0.97425798  0.16956138  0.96818448  1
  C  C3618  1  0.89085904  0.46363217  0.94398394  1
  C  C3619  1  0.76399655  0.16437865  0.88079326  1
  C  C3620  1  0.94032440  0.19114687  0.90615964  1
  H  H3621  1  0.82782645  0.45153040  0.99197899  1
  H  H3622  1  0.96879638  0.18407133  0.89729841  1
  C  C3623  1  0.85895621  0.17916560  0.91271195  1
  C  C3624  1  0.84296974  0.48183509  0.89989101  1
  H  H3625  1  0.96976118  0.25341495  0.92535741  1
  C  C3626  1  0.84926894  0.41204257  0.99012738  1
  C  C3627  1  0.96902680  0.42712545  0.88441576  1
  C  C3628  1  0.87573918  0.32944779  0.97157966  1
  H  H3629  1  0.83194510  0.22129128  0.93602243  1
  C  C3630  1  0.84862242  0.03782860  0.94549379  1
  C  C3631  1  0.91817763  0.35933889  0.99971921  1
  C  C3632  1  0.63907421  0.89960467  0.05413323  1
  C  C3633  1  0.63182962  0.83923488  0.05600758  1
  H  H3634  1  0.66405476  0.91671720  0.04407678  1
  C  C3635  1  0.62006155  0.71616519  0.05929644  1
  O  O3636  1  0.63299970  0.62099675  0.04657374  1
  C  C3637  1  0.64106599  0.73940925  0.04438104  1
  C  C3638  1  0.64816913  0.79975253  0.04277006  1
  H  H3639  1  0.65378198  0.70773069  0.03465355  1
  H  H3640  1  0.66594628  0.81414556  0.03135969  1
  C  C3641  1  0.61607263  0.65012584  0.05899820  1
  Zn  Zn3642  1  0.62747646  0.53418034  0.04018978  1
  H  H3643  1  0.62529405  0.91806497  0.02510525  1
  H  H3644  1  0.53758265  0.82504724  0.03602549  1
  O  O3645  1  0.54880203  0.74057206  0.01880128  1
  O  O3646  1  0.59349566  0.62318274  0.07035328  1
  O  O3647  1  0.62689548  0.94545750  0.06286823  1
  C  C3648  1  0.60821654  0.81281222  0.07050096  1
  C  C3649  1  0.60260908  0.75309154  0.07279447  1
  O  O3650  1  0.59573748  0.56135654  0.01358603  1
  H  H3651  1  0.55452919  0.90772462  0.05330979  1
  C  C3652  1  0.64166894  0.96224815  0.02169766  1
  C  C3653  1  0.52161602  0.92503650  0.04923209  1
  H  H3654  1  0.70617263  0.86762391  0.01932558  1
  C  C3655  1  0.69159187  0.96106912  0.01592302  1
  H  H3656  1  0.71981978  0.95415564  0.06004191  1
  C  C3657  1  0.51761288  0.75559361  0.01091756  1
  C  C3658  1  0.71920426  0.91048863  0.01553600  1
  H  H3659  1  0.58877974  0.73254670  0.08436992  1
  H  H3660  1  0.59619677  0.84256357  0.08146972  1
  H  H3661  1  0.71183307  0.53649956  0.08400862  1
  Zn  Zn3662  1  0.57189424  0.55033105  0.08473126  1
  H  H3663  1  0.70699448  0.72448230  0.09571066  1
  H  H3664  1  0.71679540  0.92571293  0.09425002  1
  C  C3665  1  0.64420415  0.74419308  0.10908156  1
  C  C3666  1  0.57259681  0.78805043  0.11350624  1
  C  C3667  1  0.55645917  0.72863184  0.11351718  1
  C  C3668  1  0.62687294  0.68586396  0.10811943  1
  O  O3669  1  0.57197238  0.52269250  0.11059827  1
  C  C3670  1  0.69334505  0.75367099  0.10580160  1
  H  H3671  1  0.58056926  0.94063341  0.09116445  1
  O  O3672  1  0.71516847  0.81522266  0.10275751  1
  C  C3673  1  0.61828497  0.79601851  0.11164963  1
  H  H3674  1  0.63384325  0.84014444  0.11211457  1
  C  C3675  1  0.56285072  0.92933760  0.10344728  1
  H  H3676  1  0.64752937  0.98257643  0.11298627  1
  C  C3677  1  0.58106528  0.67641540  0.10910121  1
  H  H3678  1  0.64999294  0.64916860  0.10462798  1
  H  H3679  1  0.56785296  0.63318986  0.10627665  1
  C  C3680  1  0.51390576  0.84883865  0.02730064  1
  O  O3681  1  0.63890969  0.51358942  0.08386683  1
  H  H3682  1  0.52738230  0.63222139  0.00455373  1
  H  H3683  1  0.53631754  0.99759826  0.08228115  1
  C  C3684  1  0.51780616  0.90841523  0.10240870  1
  H  H3685  1  0.71134992  0.74132523  0.11780041  1
  C  C3686  1  0.50336375  0.99026151  0.07604270  1
  O  O3687  1  0.70023826  0.51408084  0.03599297  1
  C  C3688  1  0.74142279  0.53150231  0.01035016  1
  C  C3689  1  0.50855898  0.72156554  0.11744581  1
  O  O3690  1  0.50907783  0.54241157  0.06994657  1
  C  C3691  1  0.57871289  0.94371505  0.12008719  1
  H  H3692  1  0.55329288  0.82870813  0.11611381  1
  H  H3693  1  0.70953308  0.90591600  0.12297835  1
  C  C3694  1  0.62680428  0.97176793  0.12452905  1
  H  H3695  1  0.74670041  0.60133382  0.03037594  1
  H  H3696  1  0.56911730  0.92087863  0.00093842  1
  H  H3697  1  0.50117266  0.90013619  0.08996421  1
  C  C3698  1  0.61820570  0.98761299  0.00489315  1
  C  C3699  1  0.58999967  0.52993032  0.00087638  1
  O  O3700  1  0.50091920  0.82013772  0.01380554  1
  O  O3701  1  0.72192836  0.63659670  0.12227451  1
  H  H3702  1  0.50554792  0.70796226  0.04627822  1
  C  C3703  1  0.76075251  0.62007609  0.12137526  1
  C  C3704  1  0.75404085  0.93602437  0.09584855  1
  O  O3705  1  0.94250716  0.98414808  0.06901666  1
  C  C3706  1  0.75475191  0.96867848  0.06226454  1
  C  C3707  1  0.76416288  0.98588329  0.10979992  1
  C  C3708  1  0.75873764  0.58670117  0.01698781  1
  O  O3709  1  0.77396798  0.58152803  0.11163593  1
  C  C3710  1  0.76374886  0.91707413  0.01148865  1
  C  C3711  1  0.76040336  0.82546130  0.10441604  1
  C  C3712  1  0.77597765  0.96114852  0.07896017  1
  H  H3713  1  0.85348062  0.73116588  0.03022829  1
  H  H3714  1  0.83576466  0.55809517  0.03921374  1
  C  C3715  1  0.84951306  0.63888717  0.04260907  1
  C  C3716  1  0.85241837  0.68676059  0.03571678  1
  H  H3717  1  0.96321182  0.95189758  0.04343572  1
  O  O3718  1  0.86234707  0.84139615  0.02013895  1
  H  H3719  1  0.84342471  0.83956640  0.04805066  1
  C  C3720  1  0.87590150  0.84798136  0.05360173  1
  C  C3721  1  0.91323331  0.83859069  0.04280594  1
  C  C3722  1  0.90237381  0.83252093  0.02372951  1
  H  H3723  1  0.87096293  0.59361179  0.01320678  1
  C  C3724  1  0.88408484  0.85539452  0.07119161  1
  C  C3725  1  0.90623216  0.60082373  0.01106978  1
  O  O3726  1  0.92901277  0.82156441  0.01153012  1
  C  C3727  1  0.95778120  0.84057331  0.04860375  1
  C  C3728  1  0.96678791  0.84987827  0.06643399  1
  C  C3729  1  0.92978735  0.85731120  0.07745370  1
  H  H3730  1  0.90380924  0.95090779  0.05036098  1
  H  H3731  1  0.91233095  0.96221474  0.01392332  1
  C  C3732  1  0.93537824  0.60329285  0.02473319  1
  H  H3733  1  0.91729454  0.60442922  0.03762275  1
  H  H3734  1  0.95843887  0.66101033  0.05182036  1
  H  H3735  1  0.95789305  0.71606668  0.07715149  1
  H  H3736  1  0.78796149  0.87805755  0.01074021  1
  H  H3737  1  0.85391471  0.86346781  0.07902270  1
  H  H3738  1  0.80315806  0.65988617  0.01312489  1
  H  H3739  1  0.88230736  0.60088952  0.07381241  1
  C  C3740  1  0.90229795  0.63159554  0.08313098  1
  O  O3741  1  0.88524101  0.68208818  0.08463865  1
  H  H3742  1  0.88744610  0.76450541  0.09134509  1
  C  C3743  1  0.94068435  0.60629702  0.09040118  1
  C  C3744  1  0.91036835  0.73352070  0.09805862  1
  C  C3745  1  0.84093059  0.96540992  0.09889797  1
  C  C3746  1  0.93486523  0.73765495  0.11119777  1
  H  H3747  1  0.93827771  0.92886652  0.09674292  1
  C  C3748  1  0.93869686  0.87866819  0.09594644  1
  H  H3749  1  0.97125886  0.86545276  0.10207386  1
  C  C3750  1  0.79208212  0.78538381  0.10940095  1
  C  C3751  1  0.78087514  0.88173032  0.10054555  1
  C  C3752  1  0.85654180  0.85911766  0.11001248  1
  C  C3753  1  0.83694707  0.80381173  0.11254987  1
  C  C3754  1  0.82595708  0.89934362  0.10322952  1
  O  O3755  1  0.90676999  0.87640485  0.11294212  1
  H  H3756  1  0.96399059  0.63228370  0.09763118  1
  C  C3757  1  0.94822549  0.54785658  0.08694197  1
  H  H3758  1  0.78385509  0.74019314  0.11339175  1
  H  H3759  1  0.85037225  0.61620247  0.11980994  1
  H  H3760  1  0.98404114  0.83377482  0.03924958  1
  C  C3761  1  0.93374029  0.97914849  0.04846078  1
  C  C3762  1  0.98273714  0.60293581  0.02460943  1
  H  H3763  1  0.87641325  0.97420656  0.10039164  1
  H  H3764  1  0.96630793  0.59026304  0.06071921  1
  C  C3765  1  0.78816558  0.62033814  0.00724673  1
  H  H3766  1  0.85823539  0.77050540  0.11791445  1
  C  C3767  1  0.98505379  0.62951506  0.05586757  1
  C  C3768  1  0.82105420  0.97804747  0.08040191  1
  O  O3769  1  0.84479937  0.58209968  0.04948248  1
  H  H3770  1  0.92585172  0.52185181  0.07777736  1
  H  H3771  1  0.79500704  0.51096053  0.08397362  1
  H  H3772  1  0.97436470  0.50641411  0.04814237  1
  C  C3773  1  0.99383295  0.59254325  0.00670624  1
  H  H3774  1  0.99882153  0.84456450  0.07213120  1
  C  C3775  1  0.99447554  0.70685990  0.07965115  1
  C  C3776  1  0.98978895  0.52662218  0.09270911  1
  H  H3777  1  0.96931152  0.61993805  0.12126692  1
  H  H3778  1  0.84760453  0.51939578  0.12449942  1
  C  C3779  1  0.94368603  0.98131940  0.11934285  1
  C  C3780  1  0.78229807  0.97097960  0.00562639  1
  H  H3781  1  0.81799098  0.97582795  0.00256065  1
  C  C3782  1  0.77874509  0.98968610  0.04753895  1
  H  H3783  1  0.50229555  0.57725178  0.23578469  1
  H  H3784  1  0.67935115  0.50070958  0.24372569  1
  H  H3785  1  0.50850478  0.92588926  0.21577130  1
  C  C3786  1  0.51134785  0.92408525  0.24404499  1
  C  C3787  1  0.50278558  0.79746397  0.15331204  1
  H  H3788  1  0.52096578  0.83407354  0.19607854  1
  C  C3789  1  0.53024451  0.91854477  0.22726419  1
  O  O3790  1  0.69744694  0.50942632  0.19019457  1
  H  H3791  1  0.50614251  0.70759410  0.17916632  1
  C  C3792  1  0.51191206  0.91304542  0.13440165  1
  C  C3793  1  0.56384423  0.53333616  0.16057058  1
  C  C3794  1  0.52626457  0.57491062  0.16152929  1
  C  C3795  1  0.54319372  0.76800662  0.14972145  1
  C  C3796  1  0.68730384  0.89555071  0.13350001  1
  C  C3797  1  0.64628897  0.92416268  0.13661078  1
  C  C3798  1  0.55701122  0.92900508  0.13628589  1
  H  H3799  1  0.54999048  0.74590252  0.13726088  1
  C  C3800  1  0.69573423  0.84677704  0.14447586  1
  C  C3801  1  0.62129304  0.90970952  0.15191296  1
  C  C3802  1  0.57881182  0.95075872  0.15341222  1
  O  O3803  1  0.59990216  0.54832967  0.16835619  1
  C  C3804  1  0.66828342  0.83176460  0.15884300  1
  C  C3805  1  0.63245594  0.86618133  0.16392422  1
  H  H3806  1  0.56045247  0.94155177  0.16586004  1
  H  H3807  1  0.60522910  0.73269825  0.16044655  1
  C  C3808  1  0.57446258  0.76016635  0.16293587  1
  C  C3809  1  0.52626857  0.81631607  0.18310536  1
  C  C3810  1  0.52124037  0.53694677  0.23880063  1
  C  C3811  1  0.56353552  0.77995109  0.17957223  1
  O  O3812  1  0.59268103  0.77585698  0.20984524  1
  C  C3813  1  0.53164408  0.62292303  0.17265297  1
  H  H3814  1  0.67874243  0.79349560  0.16618558  1
  C  C3815  1  0.56271974  0.52907158  0.23074553  1
  C  C3816  1  0.71221570  0.52434700  0.20500809  1
  H  H3817  1  0.56121998  0.63257891  0.17922520  1
  O  O3818  1  0.55904726  0.62634644  0.21844061  1
  O  O3819  1  0.62758908  0.72920023  0.18988300  1
  H  H3820  1  0.61057452  0.85147794  0.17503627  1
  C  C3821  1  0.57815833  0.57687048  0.21868610  1
  Zn  Zn3822  1  0.58015023  0.71147158  0.22893039  1
  C  C3823  1  0.57369318  0.89580620  0.22428448  1
  H  H3824  1  0.58670560  0.88917375  0.21090618  1
  H  H3825  1  0.66444087  0.73195002  0.23564766  1
  O  O3826  1  0.61093361  0.56843316  0.20902763  1
  C  C3827  1  0.60135656  0.88697057  0.23880495  1
  H  H3828  1  0.63703359  0.87132602  0.23750857  1
  C  C3829  1  0.59765934  0.76172648  0.19392905  1
  O  O3830  1  0.69138553  0.64509378  0.24649764  1
  C  C3831  1  0.74153357  0.57820923  0.20514694  1
  O  O3832  1  0.63868988  0.72545470  0.24368456  1
  H  H3833  1  0.73814586  0.58836869  0.17669133  1
  Zn  Zn3834  1  0.73011941  0.99765222  0.16947947  1
  H  H3835  1  0.72416082  0.81682694  0.14154713  1
  H  H3836  1  0.73956753  0.70574472  0.14304054  1
  Zn  Zn3837  1  0.62442601  0.50039942  0.19005368  1
  H  H3838  1  0.73250131  0.96156464  0.22518768  1
  C  C3839  1  0.73956362  0.95539002  0.21084110  1
  O  O3840  1  0.50066808  0.73391078  0.23091408  1
  H  H3841  1  0.63032489  0.99818047  0.23298166  1
  C  C3842  1  0.71441208  0.98791963  0.19718779  1
  H  H3843  1  0.74424863  0.79708353  0.24672917  1
  C  C3844  1  0.99628840  0.86584412  0.15947386  1
  C  C3845  1  0.91308002  0.93349312  0.12544292  1
  C  C3846  1  0.99892993  0.51549040  0.17708114  1
  C  C3847  1  0.98498984  0.57071672  0.17042086  1
  C  C3848  1  0.82623134  0.50804938  0.24943678  1
  C  C3849  1  0.86828668  0.68329134  0.13911274  1
  H  H3850  1  0.83665370  0.87462042  0.20778325  1
  C  C3851  1  0.77643403  0.92549761  0.20725649  1
  C  C3852  1  0.83277615  0.85465278  0.16890668  1
  C  C3853  1  0.81941687  0.85685123  0.15079001  1
  O  O3854  1  0.86273617  0.81814439  0.17494235  1
  H  H3855  1  0.79286314  0.76877974  0.16238125  1
  H  H3856  1  0.88857651  0.80556314  0.15122038  1
  H  H3857  1  0.81971525  0.76949604  0.19909489  1
  C  C3858  1  0.93979542  0.59102258  0.17242879  1
  C  C3859  1  0.77612712  0.65716571  0.18806888  1
  H  H3860  1  0.78229070  0.67805384  0.17507269  1
  C  C3861  1  0.91095808  0.55145533  0.18096314  1
  C  C3862  1  0.99579194  0.70316719  0.13191627  1
  H  H3863  1  0.77637490  0.75510389  0.22315574  1
  C  C3864  1  0.88864531  0.96198320  0.16677069  1
  C  C3865  1  0.75066353  0.60587896  0.18930361  1
  C  C3866  1  0.76963979  0.93810362  0.15567015  1
  C  C3867  1  0.96168662  0.74630969  0.12573495  1
  H  H3868  1  0.90425648  0.80566787  0.19611552  1
  H  H3869  1  0.87950219  0.95170839  0.12803369  1
  O  O3870  1  0.94450236  0.59409216  0.22177485  1
  C  C3871  1  0.99774819  0.64157118  0.12702022  1
  C  C3872  1  0.79269559  0.90095379  0.14343140  1
  C  C3873  1  0.79344323  0.65926099  0.13248165  1
  H  H3874  1  0.93264291  0.84677224  0.17034587  1
  H  H3875  1  0.75025816  0.57635331  0.23335347  1
  H  H3876  1  0.81732757  0.99107388  0.18777780  1
  H  H3877  1  0.96368218  0.79240726  0.13080175  1
  H  H3878  1  0.93727359  0.74130930  0.23718590  1
  H  H3879  1  0.97620148  0.54718654  0.24116522  1
  C  C3880  1  0.77517692  0.70060480  0.14323711  1
  H  H3881  1  0.90298648  0.68330740  0.13645636  1
  H  H3882  1  0.82274974  0.52781301  0.23612608  1
  O  O3883  1  0.90580870  0.59890843  0.22723673  1
  C  C3884  1  0.83854406  0.64793134  0.12983199  1
  C  C3885  1  0.80843392  0.89310223  0.18004262  1
  C  C3886  1  0.78763559  0.64661559  0.22006577  1
  C  C3887  1  0.80589596  0.52897950  0.15799144  1
  C  C3888  1  0.79981161  0.67439507  0.20349129  1
  C  C3889  1  0.79938770  0.76904263  0.23346882  1
  H  H3890  1  0.93915570  0.70741678  0.20325793  1
  H  H3891  1  0.85307334  0.71615060  0.18891469  1
  C  C3892  1  0.76030779  0.59661908  0.22127510  1
  H  H3893  1  0.87494750  0.56226044  0.18072841  1
  H  H3894  1  0.99465666  0.81958975  0.22981684  1
  C  C3895  1  0.94057780  0.80309244  0.19824363  1
  C  C3896  1  0.85212525  0.72722708  0.15100732  1
  C  C3897  1  0.95990015  0.98799456  0.15471116  1
  O  O3898  1  0.86565359  0.74315690  0.21668314  1
  C  C3899  1  0.96257510  0.85887988  0.19964795  1
  C  C3900  1  0.88136015  0.77009585  0.16119026  1
  C  C3901  1  0.83286424  0.72409650  0.20088299  1
  C  C3902  1  0.95324784  0.88235237  0.16472250  1
  C  C3903  1  0.77757489  0.93216637  0.17302119  1
  H  H3904  1  0.80067189  0.66022299  0.23284189  1
  H  H3905  1  0.88128927  0.95392453  0.18070247  1
  C  C3906  1  0.80566533  0.73397755  0.15321966  1
  H  H3907  1  0.86290191  0.93930471  0.15964852  1
  C  C3908  1  0.99618801  0.90799542  0.24089283  1
  H  H3909  1  0.92395695  0.91148110  0.13745362  1
  C  C3910  1  0.81272023  0.52090656  0.17525630  1
  H  H3911  1  0.80157837  0.57436568  0.15322291  1
  C  C3912  1  0.98013477  0.84899567  0.23965327  1
  H  H3913  1  0.83148048  0.82430444  0.14045490  1
  H  H3914  1  0.94137656  0.89859091  0.20010883  1
  H  H3915  1  0.91161701  0.74895101  0.16519043  1
  H  H3916  1  0.81273894  0.56048077  0.18476394  1
  C  C3917  1  0.81206499  0.89817187  0.19960892  1
  C  C3918  1  0.93414609  0.94154933  0.16150906  1
  H  H3919  1  0.92414070  0.63174209  0.16793655  1
  C  C3920  1  0.96127482  0.74635897  0.20016436  1
  H  H3921  1  0.78682904  0.90559153  0.12901662  1
  C  C3922  1  0.84654753  0.76156712  0.23089252  1
  C  C3923  1  0.94184420  0.83200545  0.24837940  1
  C  C3924  1  0.78057263  0.79492081  0.24739520  1
  C  C3925  1  0.87030862  0.77641478  0.24621897  1
  C  C3926  1  0.92210065  0.76834493  0.24782638  1
  H  H3927  1  0.64598321  0.87427898  0.27266904  1
  C  C3928  1  0.60864909  0.88756845  0.27370250  1
  C  C3929  1  0.60698135  0.81960751  0.30103610  1
  C  C3930  1  0.58394325  0.89703794  0.25564960  1
  O  O3931  1  0.64675110  0.81609264  0.30600081  1
  C  C3932  1  0.65779651  0.60906567  0.28009415  1
  C  C3933  1  0.58731298  0.84676379  0.28646698  1
  C  C3934  1  0.64166994  0.59987772  0.29667565  1
  C  C3935  1  0.60525383  0.63342670  0.30402226  1
  C  C3936  1  0.59625970  0.94782954  0.28433937  1
  C  C3937  1  0.64158096  0.66040995  0.27053596  1
  C  C3938  1  0.60950383  0.69782257  0.27819531  1
  C  C3939  1  0.58996919  0.61200963  0.32189206  1
  C  C3940  1  0.59019001  0.68343518  0.29423549  1
  C  C3941  1  0.56630148  0.79940087  0.31089689  1
  C  C3942  1  0.54960476  0.95378696  0.28653649  1
  H  H3943  1  0.68471599  0.58222263  0.27417555  1
  H  H3944  1  0.59714391  0.73733186  0.27089972  1
  H  H3945  1  0.55504238  0.62963800  0.32416183  1
  H  H3946  1  0.56582803  0.71605906  0.29920831  1
  O  O3947  1  0.67496834  0.97069836  0.28884603  1
  Zn  Zn3948  1  0.67438518  0.74805303  0.32112400  1
  C  C3949  1  0.56768754  0.76170948  0.32599679  1
  H  H3950  1  0.56514042  0.55956715  0.29443071  1
  H  H3951  1  0.65403450  0.56187115  0.30462102  1
  H  H3952  1  0.61164390  0.62921201  0.33212917  1
  O  O3953  1  0.59794315  0.54101718  0.32585920  1
  C  C3954  1  0.53844088  0.83912095  0.28283391  1
  C  C3955  1  0.53819670  0.91236893  0.25884289  1
  C  C3956  1  0.63123723  0.98123590  0.29097060  1
  H  H3957  1  0.59835388  0.75173549  0.33342274  1
  O  O3958  1  0.62565647  0.83939736  0.34327378  1
  H  H3959  1  0.68812321  0.93046164  0.34774365  1
  C  C3960  1  0.71868067  0.72057371  0.34332687  1
  C  C3961  1  0.67366373  0.69189719  0.34236079  1
  C  C3962  1  0.64061689  0.67332273  0.35575300  1
  C  C3963  1  0.61016416  0.87738626  0.35263629  1
  C  C3964  1  0.62062127  0.93561533  0.36059288  1
  C  C3965  1  0.72757388  0.77296605  0.35480700  1
  Zn  Zn3966  1  0.70777918  0.63769349  0.35896276  1
  O  O3967  1  0.68357324  0.53961840  0.36321289  1
  C  C3968  1  0.66452517  0.95562638  0.35654662  1
  O  O3969  1  0.60586506  0.66182718  0.36131772  1
  C  C3970  1  0.70030541  0.78898398  0.36864201  1
  C  C3971  1  0.52639702  0.80941233  0.30085857  1
  C  C3972  1  0.52126896  0.90609805  0.27795986  1
  C  C3973  1  0.52580540  0.74098633  0.33154833  1
  H  H3974  1  0.60595471  0.54057302  0.35243202  1
  H  H3975  1  0.53078491  0.81171711  0.27132910  1
  H  H3976  1  0.52179109  0.71818463  0.34404992  1
  H  H3977  1  0.66894722  0.76279746  0.37169529  1
  O  O3978  1  0.53938729  0.72984686  0.25418022  1
  C  C3979  1  0.56285681  0.51415862  0.29921650  1
  C  C3980  1  0.58903869  0.51356816  0.36261689  1
  C  C3981  1  0.58385924  0.50071008  0.31522307  1
  Zn  Zn3982  1  0.54921816  0.86369250  0.36332777  1
  C  C3983  1  0.58918810  0.97160774  0.37150116  1
  H  H3984  1  0.51672168  0.51263934  0.35225027  1
  H  H3985  1  0.74211152  0.70486811  0.32189563  1
  O  O3986  1  0.51244699  0.78973577  0.37446169  1
  O  O3987  1  0.54896817  0.95740466  0.37403472  1
  H  H3988  1  0.73997813  0.99403002  0.33021701  1
  C  C3989  1  0.66287008  0.67044187  0.25402116  1
  O  O3990  1  0.75734378  0.70207684  0.33278632  1
  C  C3991  1  0.75831450  0.99308378  0.30115465  1
  H  H3992  1  0.77011711  0.54837719  0.27173700  1
  H  H3993  1  0.98432342  0.84947034  0.28841113  1
  C  C3994  1  0.76708284  0.80700656  0.35138869  1
  O  O3995  1  0.76789848  0.62712614  0.27861289  1
  C  C3996  1  0.77512438  0.57825303  0.28407702  1
  O  O3997  1  0.98088814  0.85680393  0.32320816  1
  H  H3998  1  0.77484611  0.88734919  0.29748116  1
  H  H3999  1  0.79629068  0.64483375  0.30878600  1
  C  C4000  1  0.79166262  0.59973672  0.31357223  1
  C  C4001  1  0.77935551  0.55377891  0.30219664  1
  O  O4002  1  0.77915461  0.83752942  0.27534514  1
  H  H4003  1  0.80499969  0.74563087  0.29564775  1
  H  H4004  1  0.82374123  0.89478870  0.28550270  1
  C  C4005  1  0.80246887  0.86110312  0.29147017  1
  C  C4006  1  0.82596537  0.82768533  0.30637491  1
  H  H4007  1  0.87183337  0.85977380  0.28301977  1
  C  C4008  1  0.88649419  0.83182412  0.27248233  1
  H  H4009  1  0.90278357  0.79422268  0.30809981  1
  C  C4010  1  0.91957382  0.76734364  0.29769017  1
  C  C4011  1  0.94340122  0.71352566  0.30091719  1
  C  C4012  1  0.91509748  0.77773709  0.27959785  1
  H  H4013  1  0.94341711  0.69676245  0.31474588  1
  C  C4014  1  0.96419890  0.67551333  0.28878446  1
  C  C4015  1  0.92180066  0.86506671  0.26215278  1
  H  H4016  1  0.92150521  0.94976661  0.27448898  1
  C  C4017  1  0.93663335  0.92421686  0.26401968  1
  C  C4018  1  0.82159995  0.76503810  0.30701273  1
  C  C4019  1  0.84350694  0.73170130  0.31977284  1
  H  H4020  1  0.83375188  0.68546194  0.32049121  1
  C  C4021  1  0.93234269  0.74217742  0.26628297  1
  C  C4022  1  0.85060402  0.80417511  0.26058389  1
  C  C4023  1  0.95769752  0.69286316  0.27106852  1
  C  C4024  1  0.84913047  0.85360572  0.32089055  1
  H  H4025  1  0.84894344  0.90117505  0.31856632  1
  H  H4026  1  0.88724880  0.53516170  0.28769365  1
  C  C4027  1  0.87049339  0.76088418  0.33257273  1
  C  C4028  1  0.87105946  0.82365916  0.33369619  1
  O  O4029  1  0.89702120  0.67567568  0.34824826  1
  C  C4030  1  0.79755720  0.58415468  0.33105339  1
  C  C4031  1  0.89695265  0.73125271  0.34686695  1
  H  H4032  1  0.78921327  0.79608785  0.33971659  1
  H  H4033  1  0.80962146  0.61458177  0.34056420  1
  C  C4034  1  0.77651568  0.85648447  0.36109664  1
  H  H4035  1  0.88688920  0.84785173  0.34431036  1
  O  O4036  1  0.80585445  0.54900834  0.36679323  1
  O  O4037  1  0.92186606  0.75935056  0.35664770  1
  Zn  Zn4038  1  0.95573686  0.67023888  0.36837462  1
  C  C4039  1  0.80441359  0.81404031  0.26225630  1
  H  H4040  1  0.80810416  0.88109988  0.35918203  1
  C  C4041  1  0.85338787  0.53699936  0.26182897  1
  H  H4042  1  0.98469812  0.63651373  0.29252061  1
  C  C4043  1  0.97190031  0.94415968  0.25295998  1
  C  C4044  1  0.78893263  0.52577554  0.33698525  1
  O  O4045  1  0.92627014  0.96795391  0.30839101  1
  C  C4046  1  0.89443932  0.98666545  0.31797383  1
  Zn  Zn4047  1  0.98768973  0.97368228  0.32195374  1
  C  C4048  1  0.86340557  0.51230039  0.27855642  1
  C  C4049  1  0.84434544  0.98845438  0.31145862  1
  C  C4050  1  0.83680552  0.98975566  0.29374690  1
  H  H4051  1  0.87281546  0.57620986  0.25724955  1
  C  C4052  1  0.79253172  0.99296126  0.28862932  1
  C  C4053  1  0.79159639  0.51231631  0.35581534  1
  C  C4054  1  0.98350973  0.52107078  0.25294329  1
  H  H4055  1  0.78346315  0.99479819  0.27491428  1
  H  H4056  1  0.97735785  0.67005844  0.26079846  1
  H  H4057  1  0.82019977  0.98931365  0.33883647  1
  C  C4058  1  0.81094551  0.98914877  0.32455316  1
  H  H4059  1  0.86588077  0.98883146  0.28570839  1
  H  H4060  1  0.98556961  0.99032985  0.25368229  1
  C  C4061  1  0.76624286  0.99308201  0.31986329  1
  C  C4062  1  0.66752199  0.51240780  0.37535164  1
  C  C4063  1  0.74864083  0.87643675  0.37523326  1
  C  C4064  1  0.69696164  0.50054614  0.48563757  1
  C  C4065  1  0.71248082  0.83821473  0.37862757  1
  H  H4066  1  0.52206093  0.91224647  0.47962608  1
  H  H4067  1  0.50034339  0.97822821  0.46873571  1
  C  C4068  1  0.50050572  0.58654493  0.40797436  1
  C  C4069  1  0.50612209  0.56801109  0.39018161  1
  H  H4070  1  0.50694614  0.74953707  0.44868089  1
  C  C4071  1  0.51495213  0.75627758  0.40454924  1
  H  H4072  1  0.68771152  0.85380811  0.38931681  1
  H  H4073  1  0.56215056  0.71386094  0.38839425  1
  C  C4074  1  0.55354880  0.72231903  0.40229248  1
  O  O4075  1  0.64271406  0.83191738  0.40751655  1
  H  H4076  1  0.61605081  0.56291747  0.39691731  1
  H  H4077  1  0.66169002  0.65154364  0.38714435  1
  C  C4078  1  0.66608156  0.63500003  0.40060311  1
  C  C4079  1  0.64108325  0.58457294  0.40509413  1
  H  H4080  1  0.52992722  0.53325991  0.38592670  1
  O  O4081  1  0.66570545  0.92659458  0.40183817  1
  C  C4082  1  0.63649760  0.88266382  0.41083846  1
  H  H4083  1  0.65373798  0.96192033  0.40743871  1
  H  H4084  1  0.60478571  0.66868075  0.41285306  1
  H  H4085  1  0.70980289  0.70530601  0.41097448  1
  C  C4086  1  0.69405162  0.65992263  0.41383065  1
  C  C4087  1  0.57665582  0.69675153  0.41574248  1
  H  H4088  1  0.55684580  0.57689709  0.42619073  1
  C  C4089  1  0.59543122  0.96517590  0.42883574  1
  C  C4090  1  0.57227340  0.97745543  0.44390594  1
  C  C4091  1  0.52200082  0.70083029  0.47928135  1
  C  C4092  1  0.66484439  0.96924767  0.47057618  1
  C  C4093  1  0.52415564  0.55296062  0.42249491  1
  C  C4094  1  0.52048727  0.74090585  0.43520781  1
  H  H4095  1  0.51854442  0.54186275  0.47524840  1
  H  H4096  1  0.59168109  0.81048050  0.42992388  1
  C  C4097  1  0.60645073  0.90522323  0.42465482  1
  H  H4098  1  0.54383352  0.83243870  0.45547259  1
  C  C4099  1  0.59948219  0.52954484  0.44671395  1
  O  O4100  1  0.67328531  0.55171795  0.48723436  1
  C  C4101  1  0.63614764  0.54040919  0.45799561  1
  C  C4102  1  0.58564479  0.85729671  0.43403800  1
  O  O4103  1  0.51678873  0.54517594  0.44192567  1
  C  C4104  1  0.55242318  0.54304935  0.47025503  1
  C  C4105  1  0.53058239  0.94891041  0.47101862  1
  C  C4106  1  0.64830811  0.55651606  0.42133934  1
  C  C4107  1  0.55224183  0.93111423  0.45385753  1
  C  C4108  1  0.53019575  0.76597273  0.47814236  1
  C  C4109  1  0.55490286  0.53927251  0.45184749  1
  C  C4110  1  0.56005543  0.87079850  0.44834662  1
  C  C4111  1  0.56058345  0.70839648  0.43261056  1
  H  H4112  1  0.58484981  0.69262326  0.45883173  1
  C  C4113  1  0.57525849  0.78651302  0.48118944  1
  H  H4114  1  0.61652014  0.65692964  0.44469415  1
  C  C4115  1  0.70147675  0.88052651  0.45939317  1
  H  H4116  1  0.64983077  0.65857207  0.47105356  1
  H  H4117  1  0.68915678  0.82884690  0.43425954  1
  C  C4118  1  0.59787546  0.69887323  0.44613370  1
  O  O4119  1  0.63917420  0.74149387  0.44555211  1
  C  C4120  1  0.67214841  0.73705690  0.45682872  1
  C  C4121  1  0.70872809  0.77776582  0.45821102  1
  C  C4122  1  0.67575255  0.69341290  0.47002978  1
  C  C4123  1  0.71293481  0.83089936  0.44568608  1
  C  C4124  1  0.66361935  0.91903921  0.45980522  1
  H  H4125  1  0.63564818  0.91757504  0.45061442  1
  C  C4126  1  0.68130454  0.57959326  0.43319256  1
  C  C4127  1  0.70649934  0.63159856  0.42972033  1
  C  C4128  1  0.71041978  0.68572238  0.48163294  1
  H  H4129  1  0.58486294  0.83219866  0.47896050  1
  C  C4130  1  0.63270836  0.54794000  0.47554334  1
  C  C4131  1  0.58861070  0.54698874  0.48210671  1
  C  C4132  1  0.68617220  0.53946681  0.44965739  1
  H  H4133  1  0.71384830  0.55609316  0.45690991  1
  C  C4134  1  0.70194599  0.97994439  0.48202335  1
  O  O4135  1  0.55938429  0.98194952  0.48538878  1
  H  H4136  1  0.72966860  0.65209133  0.43867463  1
  C  C4137  1  0.55387991  0.66331507  0.48804106  1
  H  H4138  1  0.71309431  0.64606147  0.49034775  1
  C  C4139  1  0.60404115  0.74759211  0.48868248  1
  H  H4140  1  0.72614990  0.95234465  0.39120557  1
  H  H4141  1  0.63578738  0.76740092  0.49281484  1
  H  H4142  1  0.58221103  0.54972269  0.49640548  1
  C  C4143  1  0.73415239  0.93558461  0.48320223  1
  C  C4144  1  0.73385295  0.88397702  0.47252880  1
  C  C4145  1  0.74271915  0.77441265  0.47127522  1
  C  C4146  1  0.59498354  0.68576498  0.49295920  1
  H  H4147  1  0.54598140  0.61666476  0.49117006  1
  H  H4148  1  0.74106396  0.82209970  0.41376592  1
  H  H4149  1  0.61030718  0.99910700  0.42135035  1
  C  C4150  1  0.74682141  0.72642226  0.48282249  1
  C  C4151  1  0.61853272  0.50723397  0.42868592  1
  H  H4152  1  0.53166201  0.50645077  0.41767298  1
  H  H4153  1  0.62227969  0.65737461  0.49836028  1
  H  H4154  1  0.67802301  0.88121523  0.49852064  1
  C  C4155  1  0.98946131  0.71645016  0.42954645  1
  O  O4156  1  0.99700775  0.73967250  0.37979940  1
  O  O4157  1  0.78329900  0.98593549  0.38113850  1
  C  C4158  1  0.92486450  0.99875372  0.44016737  1
  H  H4159  1  0.95876828  0.99153521  0.46517780  1
  H  H4160  1  0.84924910  0.66932420  0.48630513  1
  H  H4161  1  0.86083072  0.85856077  0.39151546  1
  H  H4162  1  0.86473378  0.72529854  0.41481085  1
  H  H4163  1  0.80725111  0.91817362  0.43417525  1
  H  H4164  1  0.94738287  0.52308853  0.45392272  1
  C  C4165  1  0.86929702  0.63915678  0.47956372  1
  C  C4166  1  0.97618524  0.71800513  0.41138223  1
  H  H4167  1  0.96917964  0.72106261  0.45628183  1
  C  C4168  1  0.96026982  0.72036533  0.44256538  1
  H  H4169  1  0.81366372  0.58794887  0.46965536  1
  O  O4170  1  0.93284582  0.95107212  0.37623076  1
  O  O4171  1  0.98334413  0.72890742  0.48509999  1
  C  C4172  1  0.94288704  0.60676291  0.46935384  1
  H  H4173  1  0.85610326  0.83394410  0.44049653  1
  C  C4174  1  0.79072037  0.83272036  0.45346827  1
  C  C4175  1  0.92673410  0.55482376  0.46218275  1
  C  C4176  1  0.91159579  0.72029238  0.43794973  1
  H  H4177  1  0.88243695  0.73797408  0.46318461  1
  C  C4178  1  0.91620161  0.64687676  0.47965199  1
  C  C4179  1  0.83193161  0.77365742  0.39424713  1
  C  C4180  1  0.86048669  0.50626280  0.45045914  1
  H  H4181  1  0.97181201  0.97928368  0.40278502  1
  O  O4182  1  0.82039018  0.50812370  0.44653495  1
  H  H4183  1  0.93987524  0.80975463  0.38253102  1
  O  O4184  1  0.93311385  0.88760251  0.42035860  1
  C  C4185  1  0.77229676  0.54371346  0.49715058  1
  C  C4186  1  0.93615909  0.90255653  0.38221018  1
  H  H4187  1  0.79658197  0.83476384  0.48237584  1
  H  H4188  1  0.75657101  0.58733712  0.49501598  1
  O  O4189  1  0.86671010  0.83893532  0.46488272  1
  C  C4190  1  0.75785376  0.93268539  0.38528487  1
  C  C4191  1  0.83641393  0.83374589  0.45261046  1
  C  C4192  1  0.82506375  0.90485151  0.42204429  1
  C  C4193  1  0.90908137  0.85945435  0.46113166  1
  H  H4194  1  0.92056105  0.71192955  0.39254048  1
  O  O4195  1  0.85952569  0.52307709  0.40583328  1
  H  H4196  1  0.82717338  0.77471864  0.48569696  1
  C  C4197  1  0.94007670  0.85001844  0.39083798  1
  C  C4198  1  0.77160368  0.81516986  0.42180425  1
  H  H4199  1  0.77842535  0.91329790  0.39569240  1
  C  C4200  1  0.93619537  0.69923131  0.48854225  1
  C  C4201  1  0.94558765  0.87854141  0.46054740  1
  O  O4202  1  0.96215972  0.52558311  0.42030863  1
  C  C4203  1  0.93085150  0.71818070  0.40666061  1
  O  O4204  1  0.83591242  0.65183206  0.38908324  1
  Zn  Zn4205  1  0.86773042  0.56538889  0.38251356  1
  H  H4206  1  0.85034315  0.93200590  0.41604767  1
  C  C4207  1  0.76962820  0.83268609  0.47210169  1
  C  C4208  1  0.88011502  0.55107992  0.46230897  1
  H  H4209  1  0.85155189  0.93308565  0.47435254  1
  H  H4210  1  0.91425821  0.73889049  0.48936712  1
  C  C4211  1  0.83763518  0.83125919  0.39853994  1
  C  C4212  1  0.81570879  0.66897947  0.40222216  1
  Zn  Zn4213  1  0.80439177  0.54098039  0.42070433  1
  C  C4214  1  0.93828300  0.84907325  0.40979537  1
  H  H4215  1  0.76894601  0.72429617  0.42812470  1
  H  H4216  1  0.84261809  0.73183758  0.44431637  1
  C  C4217  1  0.80628490  0.73344037  0.40534284  1
  C  C4218  1  0.89994670  0.71844806  0.41945294  1
  H  H4219  1  0.76399974  0.97959818  0.41730154  1
  O  O4220  1  0.79778270  0.63650715  0.41355658  1
  C  C4221  1  0.99158891  0.90385365  0.46097628  1
  C  C4222  1  0.81308411  0.85464370  0.41357039  1
  H  H4223  1  0.91576253  0.94929486  0.44155425  1
  H  H4224  1  0.94574257  0.80548288  0.41754710  1
  C  C4225  1  0.87640555  0.72826358  0.44896543  1
  H  H4226  1  0.95460158  0.58034102  0.37985710  1
  O  O4227  1  0.92943704  0.60415168  0.38069561  1
  C  C4228  1  0.76130160  0.82935728  0.43961014  1
  C  C4229  1  0.85008399  0.59293848  0.46961043  1
  H  H4230  1  0.97708782  0.62178590  0.46794776  1
  C  C4231  1  0.78226304  0.75296345  0.41877208  1
  H  H4232  1  0.85208936  0.75585915  0.38378435  1
  H  H4233  1  0.75870079  0.93862748  0.49393644  1
  O  O4234  1  0.84549722  0.95711397  0.48484129  1
  H  H4235  1  0.98893720  0.61184717  0.49509377  1
  C  C4236  1  0.81489143  0.76013524  0.49911593  1
  O  O4237  1  0.77866689  0.71456338  0.49477646  1
  C  C4238  1  0.66517254  0.89225809  0.52590716  1
  C  C4239  1  0.68518945  0.89648862  0.54302900  1
  C  C4240  1  0.72485237  0.66570906  0.53223976  1
  C  C4241  1  0.68679692  0.69917547  0.53392281  1
  C  C4242  1  0.64463347  0.66962475  0.53201652  1
  H  H4243  1  0.61380978  0.69325457  0.53481532  1
  C  C4244  1  0.64520104  0.60888798  0.52879415  1
  H  H4245  1  0.66710290  0.91506861  0.55352412  1
  H  H4246  1  0.62895522  0.89578785  0.52539552  1
  C  C4247  1  0.60115457  0.57561067  0.52807434  1
  C  C4248  1  0.72328248  0.60378227  0.52780178  1
  H  H4249  1  0.68818770  0.74597061  0.53627899  1
  O  O4250  1  0.56657088  0.60181119  0.53104974  1
  C  C4251  1  0.68297454  0.57393649  0.52551510  1
  H  H4252  1  0.57963973  0.73903100  0.51829893  1
  C  C4253  1  0.56427703  0.83281374  0.51806008  1
  C  C4254  1  0.55995530  0.77412904  0.52460054  1
  O  O4255  1  0.63118100  0.76022233  0.55654648  1
  C  C4256  1  0.64969030  0.78066995  0.56848560  1
  H  H4257  1  0.59727182  0.85301696  0.55207137  1
  C  C4258  1  0.54463426  0.88185965  0.52632423  1
  H  H4259  1  0.55157369  0.92492474  0.52079051  1
  H  H4260  1  0.56923895  0.61375389  0.56202607  1
  C  C4261  1  0.53019118  0.76094898  0.53849255  1
  C  C4262  1  0.69248727  0.87989952  0.51127433  1
  C  C4263  1  0.61080056  0.87462537  0.56378052  1
  C  C4264  1  0.64139110  0.84130622  0.57416489  1
  C  C4265  1  0.55601145  0.64648249  0.57032672  1
  H  H4266  1  0.67847105  0.52428402  0.52222638  1
  O  O4267  1  0.60431045  0.52159971  0.52537480  1
  C  C4268  1  0.52950079  0.69384843  0.56392803  1
  C  C4269  1  0.59722490  0.92939453  0.56883525  1
  O  O4270  1  0.68310507  0.74156685  0.58022915  1
  C  C4271  1  0.66121249  0.86642710  0.58947798  1
  C  C4272  1  0.56874055  0.64862720  0.58811636  1
  C  C4273  1  0.66283481  0.54707980  0.61286038  1
  H  H4274  1  0.58690938  0.61115514  0.59329466  1
  C  C4275  1  0.55075464  0.69512066  0.59890485  1
  H  H4276  1  0.68658468  0.84175703  0.59668395  1
  H  H4277  1  0.55597925  0.69527172  0.61261976  1
  C  C4278  1  0.67638628  0.74210171  0.59671654  1
  C  C4279  1  0.63929190  0.76875328  0.60438820  1
  C  C4280  1  0.70735418  0.71046943  0.60854948  1
  H  H4281  1  0.61322923  0.79060951  0.59666127  1
  C  C4282  1  0.64991357  0.92252842  0.59475763  1
  C  C4283  1  0.61819229  0.55683859  0.61715308  1
  C  C4284  1  0.58503430  0.52669957  0.60753472  1
  H  H4285  1  0.66172016  0.93825643  0.60736015  1
  H  H4286  1  0.73192059  0.68099647  0.60042413  1
  C  C4287  1  0.53347622  0.52950286  0.61043309  1
  C  C4288  1  0.52752133  0.74394713  0.59224839  1
  C  C4289  1  0.61434078  0.95179990  0.58492957  1
  C  C4290  1  0.73120326  0.88733883  0.54578979  1
  H  H4291  1  0.70765772  0.60189118  0.59138386  1
  H  H4292  1  0.57011861  0.95371872  0.56212610  1
  H  H4293  1  0.73369403  0.53266084  0.56029086  1
  C  C4294  1  0.63188508  0.77458393  0.62167704  1
  H  H4295  1  0.73896092  0.90982950  0.57452299  1
  C  C4296  1  0.73911955  0.87020510  0.51375634  1
  C  C4297  1  0.73887820  0.75627155  0.62029608  1
  H  H4298  1  0.51927407  0.56102756  0.62093350  1
  H  H4299  1  0.52579513  0.66386097  0.53572849  1
  H  H4300  1  0.70201813  0.99550455  0.52131249  1
  H  H4301  1  0.73008641  0.99630329  0.55241458  1
  H  H4302  1  0.58615042  0.84252816  0.50692798  1
  H  H4303  1  0.73186389  0.65899958  0.56173084  1
  C  C4304  1  0.51141721  0.54217597  0.59268805  1
  C  C4305  1  0.68804276  0.67538476  0.62270286  1
  H  H4306  1  0.74623409  0.94310961  0.60802924  1
  C  C4307  1  0.73991874  0.97649593  0.61872522  1
  C  C4308  1  0.51813550  0.87183946  0.54182823  1
  C  C4309  1  0.67550530  0.51168736  0.59855103  1
  H  H4310  1  0.68704385  0.56794753  0.62156724  1
  H  H4311  1  0.53676071  0.50055514  0.51631834  1
  C  C4312  1  0.51243585  0.70011526  0.54441874  1
  C  C4313  1  0.51724666  0.74401166  0.57390944  1
  C  C4314  1  0.73746729  0.59174705  0.58275823  1
  H  H4315  1  0.51768645  0.78412719  0.60077060  1
  C  C4316  1  0.51443177  0.81261002  0.54784814  1
  H  H4317  1  0.50568490  0.91024908  0.54946176  1
  C  C4318  1  0.52122953  0.50345539  0.57917427  1
  C  C4319  1  0.51249296  0.50719639  0.50573968  1
  H  H4320  1  0.71062213  0.50396725  0.59397037  1
  C  C4321  1  0.50215041  0.50027384  0.56196942  1
  H  H4322  1  0.74685639  0.80060491  0.58658142  1
  H  H4323  1  0.75370804  0.57592488  0.52752923  1
  H  H4324  1  0.75920923  0.86598603  0.50117084  1
  C  C4325  1  0.75678775  0.89651372  0.56304871  1
  C  C4326  1  0.76154340  0.80269909  0.61373784  1
  C  C4327  1  0.75612297  0.87312504  0.53037863  1
  H  H4328  1  0.99462675  0.59536844  0.61510782  1
  C  C4329  1  0.75109186  0.62474286  0.56747277  1
  H  H4330  1  0.95660454  0.91801626  0.57249213  1
  O  O4331  1  0.96703662  0.64133623  0.54856613  1
  H  H4332  1  0.76524042  0.71990695  0.54972122  1
  C  C4333  1  0.77012272  0.69168272  0.53841016  1
  H  H4334  1  0.78436845  0.71837987  0.52779760  1
  C  C4335  1  0.79078848  0.61366469  0.55881271  1
  C  C4336  1  0.78057037  0.83358838  0.56382817  1
  O  O4337  1  0.80212158  0.64285758  0.54342748  1
  C  C4338  1  0.79491751  0.94003496  0.55902611  1
  C  C4339  1  0.80722716  0.86841783  0.53469886  1
  C  C4340  1  0.81912807  0.92704636  0.54423535  1
  H  H4341  1  0.83038505  0.85832479  0.52392620  1
  C  C4342  1  0.81142088  0.82304664  0.55033757  1
  C  C4343  1  0.85386798  0.96295266  0.53842077  1
  C  C4344  1  0.83952836  0.77265244  0.55191679  1
  O  O4345  1  0.87992002  0.95049950  0.52498679  1
  H  H4346  1  0.86718311  0.76195140  0.54339323  1
  C  C4347  1  0.83407426  0.73182347  0.56555345  1
  H  H4348  1  0.85723583  0.69529126  0.56531277  1
  C  C4349  1  0.85853911  0.68111558  0.51514439  1
  C  C4350  1  0.89419773  0.66142222  0.52473123  1
  H  H4351  1  0.89827658  0.61530469  0.52916242  1
  C  C4352  1  0.92585270  0.70491572  0.52929641  1
  C  C4353  1  0.92305263  0.76505256  0.52351487  1
  H  H4354  1  0.94981799  0.79859909  0.52712665  1
  C  C4355  1  0.81974002  0.56907223  0.56501957  1
  C  C4356  1  0.85403763  0.74245402  0.50992249  1
  H  H4357  1  0.85846832  0.57237160  0.54060532  1
  H  H4358  1  0.85554061  0.87590159  0.57370643  1
  C  C4359  1  0.77294144  0.79136774  0.57729776  1
  C  C4360  1  0.79830439  0.73809128  0.57784689  1
  C  C4361  1  0.85968734  0.55869092  0.55426385  1
  C  C4362  1  0.90186196  0.53932516  0.55902064  1
  H  H4363  1  0.92487312  0.69555632  0.57471265  1
  C  C4364  1  0.88735137  0.78650045  0.51425389  1
  C  C4365  1  0.96169119  0.68904698  0.54125275  1
  H  H4366  1  0.94502625  0.97599365  0.51830165  1
  H  H4367  1  0.83116018  0.64854937  0.51311389  1
  C  C4368  1  0.81046376  0.53335877  0.58060973  1
  H  H4369  1  0.85172508  0.66350861  0.58879794  1
  C  C4370  1  0.92196876  0.67154777  0.58695393  1
  Zn  Zn4371  1  0.95345648  0.53379680  0.54110291  1
  H  H4372  1  0.84449111  0.96420859  0.59265356  1
  H  H4373  1  0.88160159  0.77734053  0.58513120  1
  C  C4374  1  0.86805122  0.87243250  0.58696923  1
  C  C4375  1  0.77103140  0.55268316  0.58610320  1
  H  H4376  1  0.79229965  0.70495105  0.58769963  1
  C  C4377  1  0.96338969  0.65360189  0.59545360  1
  C  C4378  1  0.86377418  0.92350900  0.59734439  1
  C  C4379  1  0.88294039  0.65231230  0.59451132  1
  C  C4380  1  0.88538641  0.81834243  0.59323186  1
  C  C4381  1  0.88405440  0.92116569  0.61460487  1
  C  C4382  1  0.90292500  0.81379808  0.60992221  1
  H  H4383  1  0.91491227  0.77275166  0.61492319  1
  C  C4384  1  0.90202401  0.86679121  0.62075862  1
  C  C4385  1  0.88385923  0.62253758  0.61167572  1
  C  C4386  1  0.96437025  0.61359143  0.61018749  1
  C  C4387  1  0.92431048  0.59722530  0.61769618  1
  H  H4388  1  0.96814972  0.91814870  0.60597690  1
  C  C4389  1  0.91295465  0.99929278  0.51659832  1
  C  C4390  1  0.84008057  0.60848004  0.61983798  1
  H  H4391  1  0.81114484  0.63664040  0.61644531  1
  C  C4392  1  0.80073971  0.98869320  0.57127800  1
  H  H4393  1  0.81924623  0.98494904  0.51334515  1
  C  C4394  1  0.78624860  0.84764107  0.62036014  1
  H  H4395  1  0.80234573  0.88326862  0.61260071  1
  C  C4396  1  0.92132397  0.53240524  0.57671539  1
  H  H4397  1  0.79536728  0.79435866  0.50574318  1
  H  H4398  1  0.83271208  0.56199751  0.61535480  1
  H  H4399  1  0.90210230  0.99618782  0.50276206  1
  O  O4400  1  0.77735988  0.99466862  0.58522363  1
  H  H4401  1  0.90183908  0.54187592  0.58924185  1
  H  H4402  1  0.88593756  0.83290631  0.50886717  1
  C  C4403  1  0.98943862  0.91369404  0.57806533  1
  C  C4404  1  0.99613700  0.91248861  0.59645567  1
  O  O4405  1  0.90262742  0.50622895  0.51967407  1
  C  C4406  1  0.81446290  0.53326205  0.50461588  1
  H  H4407  1  0.94852521  0.68918479  0.50227944  1
  H  H4408  1  0.83376118  0.57128523  0.50947081  1
  O  O4409  1  0.95612438  0.50885503  0.58278797  1
  O  O4410  1  0.99238753  0.73594809  0.54465800  1
  C  C4411  1  0.59026534  0.98899173  0.74380782  1
  O  O4412  1  0.55287905  0.51772250  0.72292996  1
  C  C4413  1  0.56363455  0.99429623  0.71355717  1
  O  O4414  1  0.52900601  0.99811336  0.64816165  1
  H  H4415  1  0.61142146  0.58420573  0.62913637  1
  H  H4416  1  0.51361960  0.71832169  0.73433864  1
  H  H4417  1  0.51294779  0.60802883  0.72971943  1
  H  H4418  1  0.66289307  0.75615109  0.62781192  1
  H  H4419  1  0.51931314  0.70916054  0.64395925  1
  C  C4420  1  0.69118198  0.99331955  0.66335778  1
  C  C4421  1  0.71836646  0.96236330  0.63444785  1
  C  C4422  1  0.55010981  0.96585548  0.69786539  1
  O  O4423  1  0.67395098  0.94086147  0.66414178  1
  H  H4424  1  0.60564665  0.68872540  0.64115643  1
  C  C4425  1  0.66737953  0.65076475  0.63413272  1
  O  O4426  1  0.59986730  0.79681951  0.63034534  1
  C  C4427  1  0.57116481  0.96401826  0.72957752  1
  H  H4428  1  0.70445982  0.91873617  0.63731189  1
  C  C4429  1  0.55622942  0.62982485  0.65284968  1
  O  O4430  1  0.64411135  0.62386128  0.64701891  1
  C  C4431  1  0.60367211  0.65532578  0.65182742  1
  H  H4432  1  0.67387201  0.76483428  0.65185778  1
  C  C4433  1  0.60559807  0.79012252  0.64907788  1
  H  H4434  1  0.52910527  0.84358491  0.64031698  1
  C  C4435  1  0.64309605  0.77319807  0.65896609  1
  C  C4436  1  0.52713466  0.83082782  0.65450512  1
  C  C4437  1  0.57085210  0.80226396  0.66068805  1
  Zn  Zn4438  1  0.60223742  0.92484608  0.66084177  1
  H  H4439  1  0.60986424  0.67973775  0.66433220  1
  C  C4440  1  0.55154400  0.56779946  0.65816314  1
  H  H4441  1  0.58181566  0.54940740  0.66319738  1
  C  C4442  1  0.53291403  0.88689985  0.66704623  1
  C  C4443  1  0.64776057  0.76782995  0.67708102  1
  H  H4444  1  0.68139712  0.76170874  0.68181244  1
  C  C4445  1  0.61343939  0.77678572  0.68883484  1
  O  O4446  1  0.61719058  0.77615120  0.70593621  1
  C  C4447  1  0.57426024  0.79006934  0.67870877  1
  C  C4448  1  0.52869401  0.80138939  0.68727475  1
  C  C4449  1  0.52936809  0.87261167  0.68601855  1
  H  H4450  1  0.52787467  0.78780370  0.70131189  1
  O  O4451  1  0.54378803  0.90755736  0.69948035  1
  H  H4452  1  0.66688448  0.87682918  0.69098531  1
  H  H4453  1  0.63727420  0.86422946  0.72646498  1
  C  C4454  1  0.66795315  0.76602632  0.71223056  1
  H  H4455  1  0.65334114  0.76648821  0.72578793  1
  H  H4456  1  0.68353976  0.72277540  0.70945356  1
  H  H4457  1  0.55598431  0.91847318  0.73055307  1
  C  C4458  1  0.69557233  0.87002875  0.69977217  1
  C  C4459  1  0.70115545  0.81323355  0.70855232  1
  H  H4460  1  0.72062203  0.95720856  0.69258444  1
  H  H4461  1  0.63675435  0.92643205  0.73885106  1
  C  C4462  1  0.63885133  0.87793940  0.74092039  1
  O  O4463  1  0.67690725  0.62945941  0.68754649  1
  H  H4464  1  0.66798494  0.63074735  0.67531474  1
  H  H4465  1  0.70226769  0.56386084  0.70757667  1
  C  C4466  1  0.72658484  0.91628004  0.70026163  1
  C  C4467  1  0.68810035  0.87269651  0.74620038  1
  C  C4468  1  0.53717937  0.95217441  0.66628273  1
  C  C4469  1  0.72469150  0.65067568  0.68428213  1
  H  H4470  1  0.72762757  0.71521859  0.64548651  1
  H  H4471  1  0.69231131  0.96967872  0.74423137  1
  C  C4472  1  0.70992951  0.92860393  0.74642879  1
  C  C4473  1  0.51747676  0.66044110  0.64648898  1
  C  C4474  1  0.73861677  0.56838438  0.70509939  1
  C  C4475  1  0.50991391  0.54219571  0.65603001  1
  O  O4476  1  0.60167389  0.85214089  0.74890304  1
  O  O4477  1  0.73249212  0.68705880  0.67378356  1
  O  O4478  1  0.54621880  0.99369078  0.68382306  1
  C  C4479  1  0.74232177  0.75206408  0.63849754  1
  C  C4480  1  0.51808142  0.62609789  0.74263481  1
  C  C4481  1  0.51851852  0.68741368  0.74483173  1
  C  C4482  1  0.74496792  0.80236340  0.71538259  1
  C  C4483  1  0.88737755  0.97379606  0.62756989  1
  Zn  Zn4484  1  0.76733788  0.51302217  0.66449327  1
  C  C4485  1  0.91071173  0.77642594  0.69629222  1
  C  C4486  1  0.91766516  0.51495331  0.65322390  1
  H  H4487  1  0.81137109  0.86871851  0.64695902  1
  O  O4488  1  0.88286643  0.77441293  0.72545430  1
  C  C4489  1  0.93752006  0.97872940  0.63148836  1
  C  C4490  1  0.90847569  0.79917353  0.71448506  1
  C  C4491  1  0.75532829  0.61442155  0.69448372  1
  C  C4492  1  0.83366116  0.89454602  0.67535316  1
  C  C4493  1  0.76382263  0.52836586  0.63490395  1
  H  H4494  1  0.97974110  0.79859949  0.66030269  1
  C  C4495  1  0.77521229  0.84762117  0.71693201  1
  H  H4496  1  0.78547242  0.96667102  0.67510618  1
  C  C4497  1  0.97049010  0.94674181  0.68137957  1
  O  O4498  1  0.93072905  0.84307090  0.71951666  1
  H  H4499  1  0.86686558  0.67831232  0.66714617  1
  H  H4500  1  0.81025053  0.66662932  0.68268094  1
  C  C4501  1  0.88452874  0.89412032  0.65124236  1
  C  C4502  1  0.82709775  0.96878376  0.65221904  1
  O  O4503  1  0.79597105  0.99863732  0.70678881  1
  C  C4504  1  0.76862645  0.52974159  0.71297448  1
  C  C4505  1  0.95794593  0.92832507  0.63749844  1
  C  C4506  1  0.80056810  0.62545227  0.69030352  1
  Zn  Zn4507  1  0.86610233  0.98201318  0.74434875  1
  H  H4508  1  0.83309053  0.61173607  0.72877672  1
  C  C4509  1  0.83030298  0.58656726  0.69755818  1
  H  H4510  1  0.97570044  0.52369004  0.69910966  1
  C  C4511  1  0.79005572  0.84131634  0.63930127  1
  C  C4512  1  0.94696655  0.79980850  0.68650399  1
  H  H4513  1  0.93825503  0.83239547  0.64304458  1
  C  C4514  1  0.79957069  0.55719129  0.64129851  1
  H  H4515  1  0.77073083  0.79066465  0.66185085  1
  C  C4516  1  0.86271370  0.94470214  0.64364508  1
  C  C4517  1  0.88867556  0.71278639  0.67298947  1
  C  C4518  1  0.94626645  0.99627446  0.67579900  1
  O  O4519  1  0.83144284  0.59431605  0.64007033  1
  C  C4520  1  0.95449094  0.77971482  0.66938427  1
  C  C4521  1  0.92305817  0.87564974  0.63907536  1
  C  C4522  1  0.97577307  0.58344337  0.65629576  1
  C  C4523  1  0.76449660  0.90483138  0.71084419  1
  H  H4524  1  0.88062862  0.50783437  0.65423358  1
  C  C4525  1  0.81470302  0.53790700  0.70801386  1
  C  C4526  1  0.93432888  0.71831895  0.64385458  1
  H  H4527  1  0.85685473  0.70693580  0.69813018  1
  C  C4528  1  0.80005878  0.94755705  0.71330399  1
  C  C4529  1  0.85565467  0.60951921  0.74016677  1
  H  H4530  1  0.86634677  0.59493648  0.69459112  1
  H  H4531  1  0.92283382  0.55953470  0.62715474  1
  H  H4532  1  0.80717559  0.84125082  0.72304165  1
  C  C4533  1  0.87023482  0.86764364  0.66665230  1
  H  H4534  1  0.96591689  0.90279850  0.67537359  1
  H  H4535  1  0.82620047  0.87653560  0.68905948  1
  H  H4536  1  0.96825675  0.83692357  0.69157046  1
  Zn  Zn4537  1  0.98393751  0.85436679  0.73602162  1
  H  H4538  1  0.88804142  0.83081987  0.67233131  1
  C  C4539  1  0.88096095  0.73138344  0.68983542  1
  C  C4540  1  0.93031319  0.57368155  0.65812050  1
  O  O4541  1  0.97416043  0.74185397  0.63336955  1
  H  H4542  1  0.97861164  0.68034135  0.66467398  1
  C  C4543  1  0.81295049  0.94500202  0.66848278  1
  H  H4544  1  0.93999691  0.66949243  0.64308694  1
  H  H4545  1  0.90740817  0.60908250  0.66145871  1
  O  O4546  1  0.83362992  0.93315800  0.72260888  1
  H  H4547  1  0.91606856  0.56428173  0.72966534  1
  H  H4548  1  0.90576913  0.72458914  0.63433412  1
  C  C4549  1  0.89758120  0.58673045  0.74012258  1
  C  C4550  1  0.92371285  0.73668505  0.66234108  1
  C  C4551  1  0.76784187  0.79614604  0.64788572  1
  H  H4552  1  0.75483747  0.75785429  0.71973909  1
  C  C4553  1  0.58776894  0.75036146  0.78740567  1
  C  C4554  1  0.54807450  0.70991397  0.79231583  1
  C  C4555  1  0.62801180  0.75104751  0.79718643  1
  H  H4556  1  0.55582804  0.68197230  0.80412253  1
  C  C4557  1  0.64501114  0.82921045  0.77496779  1
  C  C4558  1  0.57575914  0.78304667  0.77249785  1
  C  C4559  1  0.60800563  0.82014128  0.76435300  1
  C  C4560  1  0.65566436  0.79533937  0.78942458  1
  H  H4561  1  0.68495458  0.80126061  0.79729700  1
  H  H4562  1  0.67019884  0.86230341  0.77080324  1
  O  O4563  1  0.64096181  0.71743807  0.81035932  1
  O  O4564  1  0.55389559  0.89638948  0.79573272  1
  H  H4565  1  0.68304104  0.66411225  0.78492679  1
  H  H4566  1  0.65740756  0.91856287  0.78709901  1
  C  C4567  1  0.66290664  0.93445998  0.80115730  1
  C  C4568  1  0.62406508  0.91583308  0.81316231  1
  C  C4569  1  0.57905522  0.90369119  0.81036596  1
  C  C4570  1  0.69427656  0.72507187  0.81587069  1
  H  H4571  1  0.56540889  0.86024907  0.79059978  1
  C  C4572  1  0.53581955  0.67191194  0.77596277  1
  H  H4573  1  0.54034020  0.58345339  0.78605052  1
  C  C4574  1  0.53498115  0.60975320  0.77388188  1
  C  C4575  1  0.52699066  0.77824854  0.76595044  1
  C  C4576  1  0.52589468  0.71091034  0.76156390  1
  C  C4577  1  0.70979784  0.92418665  0.80972924  1
  C  C4578  1  0.71554024  0.94711355  0.82686596  1
  H  H4579  1  0.69939722  0.76965065  0.82285723  1
  O  O4580  1  0.55530796  0.58709105  0.81265201  1
  H  H4581  1  0.69554304  0.68770240  0.82557170  1
  H  H4582  1  0.56458606  0.74974930  0.82019981  1
  C  C4583  1  0.56206327  0.90500285  0.82828571  1
  C  C4584  1  0.63986795  0.91476857  0.83187582  1
  C  C4585  1  0.71624674  0.68424438  0.78595286  1
  C  C4586  1  0.72756710  0.72076209  0.80088181  1
  C  C4587  1  0.55606438  0.62316009  0.82381875  1
  H  H4588  1  0.65811614  0.87232255  0.83514191  1
  C  C4589  1  0.51891009  0.88731167  0.83511275  1
  C  C4590  1  0.57359263  0.77414345  0.84673530  1
  C  C4591  1  0.59428840  0.91789714  0.84161285  1
  C  C4592  1  0.58810221  0.92582149  0.85966399  1
  C  C4593  1  0.56173266  0.65023520  0.85544915  1
  C  C4594  1  0.55737893  0.66971711  0.83723497  1
  H  H4595  1  0.57837009  0.82210644  0.84319491  1
  C  C4596  1  0.54271994  0.92112796  0.86450381  1
  O  O4597  1  0.69680894  0.65429383  0.85812448  1
  C  C4598  1  0.56631384  0.73270767  0.83363373  1
  C  C4599  1  0.72187875  0.71562253  0.86222156  1
  H  H4600  1  0.68461093  0.54732730  0.84828085  1
  H  H4601  1  0.61479752  0.93894955  0.86862516  1
  H  H4602  1  0.55424015  0.60450547  0.85820530  1
  C  C4603  1  0.65955735  0.53357785  0.85842928  1
  C  C4604  1  0.67998043  0.51961097  0.80115351  1
  O  O4605  1  0.68221044  0.55856071  0.81228386  1
  H  H4606  1  0.52026052  0.80580850  0.75391114  1
  C  C4607  1  0.51008008  0.89833687  0.85233074  1
  H  H4608  1  0.59568676  0.96661502  0.75577989  1
  C  C4609  1  0.67192224  0.97204515  0.83336928  1
  C  C4610  1  0.52467298  0.58667475  0.75706842  1
  H  H4611  1  0.69316495  0.74871397  0.86191709  1
  C  C4612  1  0.74429215  0.89597666  0.80056412  1
  H  H4613  1  0.74045320  0.64815346  0.76190369  1
  H  H4614  1  0.74354901  0.88815679  0.78627581  1
  H  H4615  1  0.52525389  0.53657337  0.75517815  1
  C  C4616  1  0.61350446  0.51254039  0.85230924  1
  H  H4617  1  0.62099542  0.52327582  0.82409850  1
  C  C4618  1  0.59962753  0.50524142  0.83488541  1
  C  C4619  1  0.74861956  0.67138972  0.77377473  1
  H  H4620  1  0.67520843  0.98734936  0.84688511  1
  C  C4621  1  0.50573496  0.74885773  0.79550074  1
  C  C4622  1  0.67080817  0.63715297  0.87104954  1
  C  C4623  1  0.57889218  0.74901662  0.86385721  1
  C  C4624  1  0.65038971  0.58076765  0.87300525  1
  C  C4625  1  0.57312840  0.68846213  0.86872403  1
  H  H4626  1  0.69096289  0.77507039  0.75060554  1
  C  C4627  1  0.70824108  0.81812633  0.75148695  1
  H  H4628  1  0.61567121  0.83088233  0.86953291  1
  H  H4629  1  0.50256578  0.96299003  0.78444020  1
  C  C4630  1  0.72408467  0.50926246  0.79069837  1
  C  C4631  1  0.75186391  0.82289197  0.75689703  1
  O  O4632  1  0.91520036  0.98153346  0.86368180  1
  C  C4633  1  0.76252998  0.74123408  0.85334493  1
  H  H4634  1  0.76846291  0.67051155  0.83260223  1
  H  H4635  1  0.75786152  0.59361929  0.79635699  1
  C  C4636  1  0.75727737  0.55131025  0.79028293  1
  C  C4637  1  0.75611028  0.93908564  0.83683063  1
  H  H4638  1  0.76275641  0.96385016  0.84951684  1
  H  H4639  1  0.76659043  0.77834220  0.75990266  1
  C  C4640  1  0.77014122  0.74833667  0.80212757  1
  H  H4641  1  0.77573477  0.77517324  0.81362086  1
  C  C4642  1  0.96317122  0.94625745  0.76075813  1
  C  C4643  1  0.98290607  0.53105706  0.80994087  1
  C  C4644  1  0.79203527  0.69482309  0.77600167  1
  H  H4645  1  0.83478309  0.75280835  0.78965903  1
  C  C4646  1  0.80177917  0.73455714  0.78959135  1
  H  H4647  1  0.84826921  0.57459098  0.80289408  1
  C  C4648  1  0.92105391  0.63108557  0.80674611  1
  O  O4649  1  0.91598787  0.60393372  0.79259555  1
  H  H4650  1  0.81339579  0.87213695  0.80439797  1
  C  C4651  1  0.78327701  0.88696977  0.81047008  1
  C  C4652  1  0.84805043  0.59071549  0.81648172  1
  C  C4653  1  0.78920200  0.90626565  0.82810410  1
  Zn  Zn4654  1  0.96387982  0.75585004  0.81831247  1
  H  H4655  1  0.95406797  0.84435539  0.76120755  1
  O  O4656  1  0.95459767  0.66280202  0.80931911  1
  O  O4657  1  0.83758762  0.93221397  0.76474251  1
  O  O4658  1  0.89741843  0.78295500  0.82063895  1
  C  C4659  1  0.82052917  0.88145592  0.76473574  1
  O  O4660  1  0.84225820  0.83648724  0.76998419  1
  O  O4661  1  0.97384721  0.81497680  0.79698877  1
  Zn  Zn4662  1  0.91165419  0.60061306  0.76514594  1
  C  C4663  1  0.88869429  0.62000557  0.82088397  1
  H  H4664  1  0.84225356  0.71344038  0.82247530  1
  H  H4665  1  0.78291784  0.55988483  0.82556160  1
  C  C4666  1  0.81371542  0.58425272  0.82873562  1
  H  H4667  1  0.87591602  0.98046478  0.80985140  1
  C  C4668  1  0.82554306  0.67964528  0.76296581  1
  O  O4669  1  0.86507096  0.69581388  0.76546888  1
  O  O4670  1  0.95193398  0.79855236  0.75902765  1
  H  H4671  1  0.94268241  0.81438707  0.79635215  1
  O  O4672  1  0.95483077  0.99084451  0.82357845  1
  C  C4673  1  0.82201222  0.73503485  0.83274173  1
  H  H4674  1  0.82377026  0.89818197  0.83317554  1
  C  C4675  1  0.89694404  0.64504337  0.83758605  1
  C  C4676  1  0.87690440  0.81497144  0.83168637  1
  O  O4677  1  0.89080019  0.86620576  0.83546853  1
  H  H4678  1  0.76637497  0.63748952  0.86017532  1
  C  C4679  1  0.83740993  0.79030640  0.83972056  1
  C  C4680  1  0.78412253  0.70943552  0.83944895  1
  H  H4681  1  0.83602455  0.85432925  0.86026201  1
  C  C4682  1  0.81802526  0.81767096  0.85435310  1
  C  C4683  1  0.86635367  0.63434362  0.85079150  1
  C  C4684  1  0.82573938  0.60489629  0.84593746  1
  C  C4685  1  0.78001072  0.79470982  0.86089199  1
  C  C4686  1  0.79549066  0.60465281  0.86176298  1
  Zn  Zn4687  1  0.94570403  0.92122058  0.84567601  1
  H  H4688  1  0.92904905  0.66675446  0.83955434  1
  H  H4689  1  0.78102210  0.55801062  0.86404104  1
  H  H4690  1  0.87393159  0.64615667  0.86384895  1
  O  O4691  1  0.96847007  0.77624350  0.86405071  1
  C  C4692  1  0.79641621  0.54010514  0.78090566  1
  H  H4693  1  0.82502184  0.57056285  0.78123267  1
  O  O4694  1  0.92475977  0.93440575  0.75510228  1
  O  O4695  1  0.81490447  0.64071259  0.75158912  1
  H  H4696  1  0.89096258  0.53739843  0.84103141  1
  C  C4697  1  0.98744080  0.54603993  0.82790015  1
  C  C4698  1  0.77474041  0.87591037  0.75827835  1
  H  H4699  1  0.98527153  0.59397390  0.83219433  1
  Zn  Zn4700  1  0.88671000  0.78341098  0.75382152  1
  H  H4701  1  0.97731200  0.56445404  0.80003419  1
  H  H4702  1  0.76136010  0.81757065  0.87178083  1
  O  O4703  1  0.96596481  0.86971801  0.87227319  1
  C  C4704  1  0.94957607  0.81682752  0.87217256  1
  H  H4705  1  0.79610715  0.99395425  0.81041716  1
  C  C4706  1  0.75378593  0.92874974  0.75233861  1
  O  O4707  1  0.99534192  0.91856133  0.75352554  1
  H  H4708  1  0.99032713  0.51120632  0.85454538  1
  H  H4709  1  0.86178069  0.51511046  0.75701978  1
  C  C4710  1  0.99174156  0.50081095  0.84042819  1
  H  H4711  1  0.77231542  0.97182726  0.75359573  1
  H  H4712  1  0.72683757  0.70641882  0.87678528  1
  H  H4713  1  0.50430913  0.65801683  0.88344962  1
  H  H4714  1  0.72773195  0.56747974  0.87877974  1
  C  C4715  1  0.56179389  0.98900269  0.98144605  1
  H  H4716  1  0.56201151  0.51003855  0.94083873  1
  C  C4717  1  0.50342028  0.70524344  0.90811787  1
  C  C4718  1  0.50355955  0.75937004  0.93661584  1
  H  H4719  1  0.69055099  0.52426506  0.90280972  1
  H  H4720  1  0.50465243  0.95341581  0.88595094  1
  C  C4721  1  0.72293022  0.98206823  0.96782636  1
  C  C4722  1  0.57237160  0.53757127  0.95215755  1
  O  O4723  1  0.71291319  0.51951819  0.93640110  1
  H  H4724  1  0.57601408  0.67225614  0.88206303  1
  H  H4725  1  0.56585930  0.81954641  0.88052825  1
  C  C4726  1  0.62296855  0.55911744  0.88640950  1
  C  C4727  1  0.65620656  0.67113641  0.88544224  1
  C  C4728  1  0.62860285  0.65269738  0.89887985  1
  H  H4729  1  0.67052877  0.71578861  0.88750820  1
  C  C4730  1  0.53729396  0.93278038  0.88394969  1
  C  C4731  1  0.59600656  0.79550362  0.87609007  1
  H  H4732  1  0.53051920  0.76532617  0.88873332  1
  H  H4733  1  0.54028410  0.89056507  0.89142452  1
  O  O4734  1  0.57377250  0.97052577  0.89258594  1
  C  C4735  1  0.61050645  0.59538370  0.90081756  1
  C  C4736  1  0.72246653  0.54470922  0.90554159  1
  O  O4737  1  0.62601598  0.78676236  0.89290468  1
  C  C4738  1  0.52344684  0.76347768  0.90279501  1
  C  C4739  1  0.58611823  0.96509068  0.90940139  1
  H  H4740  1  0.62357243  0.68668867  0.90910874  1
  C  C4741  1  0.60903649  0.78474296  0.90888229  1
  O  O4742  1  0.58754128  0.57496494  0.91449737  1
  H  H4743  1  0.54833091  0.88748920  0.91642289  1
  C  C4744  1  0.56538396  0.77567690  0.91487503  1
  C  C4745  1  0.57174372  0.92051357  0.92128469  1
  C  C4746  1  0.73488205  0.54669515  0.92363455  1
  H  H4747  1  0.67331489  0.79481176  0.91971728  1
  O  O4748  1  0.63637113  0.93624034  0.96090669  1
  C  C4749  1  0.58895709  0.91584658  0.93766898  1
  H  H4750  1  0.57451910  0.88211188  0.94542381  1
  C  C4751  1  0.63810977  0.78551806  0.92343538  1
  C  C4752  1  0.62722580  0.78028995  0.94052340  1
  H  H4753  1  0.54583536  0.62779742  0.92382825  1
  C  C4754  1  0.58034486  0.61982739  0.92971753  1
  C  C4755  1  0.59379244  0.61183965  0.97991116  1
  C  C4756  1  0.58296525  0.59739466  0.94836953  1
  C  C4757  1  0.55370127  0.77026562  0.93219623  1
  H  H4758  1  0.59776617  0.68394190  0.96034281  1
  C  C4759  1  0.59189466  0.63561710  0.96323121  1
  C  C4760  1  0.58657546  0.55195810  0.98248323  1
  C  C4761  1  0.58282216  0.77522776  0.94693294  1
  H  H4762  1  0.59611938  0.66328040  0.92720650  1
  H  H4763  1  0.65299907  0.77797380  0.95082344  1
  O  O4764  1  0.56829394  0.77199678  0.96301845  1
  C  C4765  1  0.66880312  0.83287598  0.97972436  1
  H  H4766  1  0.64895795  0.87437073  0.97820825  1
  C  C4767  1  0.71498519  0.83671566  0.98023835  1
  C  C4768  1  0.62372047  0.94813396  0.94501543  1
  C  C4769  1  0.60016599  0.76450045  0.97942800  1
  C  C4770  1  0.64993507  0.77361198  0.98103414  1
  H  H4771  1  0.66486227  0.95893866  0.98427160  1
  C  C4772  1  0.67399695  0.97573678  0.97094366  1
  H  H4773  1  0.72942787  0.88316720  0.98126831  1
  H  H4774  1  0.59977726  0.64128369  0.99182742  1
  H  H4775  1  0.58666047  0.72326530  0.98516712  1
  C  C4776  1  0.67705584  0.72238127  0.98537327  1
  C  C4777  1  0.72369715  0.72665361  0.98750164  1
  C  C4778  1  0.74094956  0.78572367  0.98540326  1
  C  C4779  1  0.57446805  0.51404931  0.96891605  1
  C  C4780  1  0.63802804  0.99416698  0.93350862  1
  H  H4781  1  0.64497029  0.52426486  0.92989290  1
  H  H4782  1  0.73244525  0.90612076  0.95248735  1
  H  H4783  1  0.68927158  0.50156185  0.96586763  1
  H  H4784  1  0.53442536  0.96846902  0.97417528  1
  H  H4785  1  0.66024817  0.67700915  0.98499630  1
  H  H4786  1  0.74531500  0.68949574  0.99166073  1
  H  H4787  1  0.58269495  0.80447834  0.98512056  1
  C  C4788  1  0.74249089  0.57295908  0.89172025  1
  O  O4789  1  0.74266931  0.81271247  0.90412594  1
  C  C4790  1  0.74868288  0.94432589  0.95719961  1
  C  C4791  1  0.50058028  0.65508802  0.99704340  1
  H  H4792  1  0.51016496  0.51658045  0.90851346  1
  C  C4793  1  0.58213774  0.96307522  0.99604002  1
  H  H4794  1  0.90179893  0.54529814  0.87633943  1
  H  H4795  1  0.90642606  0.70998051  0.87678909  1
  O  O4796  1  0.99917300  0.91806795  0.99555704  1
  H  H4797  1  0.99518377  0.66557331  0.88713301  1
  H  H4798  1  0.97737200  0.51400061  0.94967303  1
  H  H4799  1  0.82307569  0.88448704  0.90077406  1
  H  H4800  1  0.75900858  0.73374159  0.90434429  1
  H  H4801  1  0.92892300  0.55197729  0.91110547  1
  C  C4802  1  0.84248975  0.63466601  0.98346093  1
  C  C4803  1  0.98321443  0.64463184  0.89966101  1
  C  C4804  1  0.84258210  0.55244433  0.94137901  1
  C  C4805  1  0.77239218  0.78024295  0.90080540  1
  C  C4806  1  0.98974443  0.60306883  0.97387895  1
  H  H4807  1  0.89279927  0.90255178  0.88589538  1
  C  C4808  1  0.90482787  0.80836247  0.87996760  1
  C  C4809  1  0.80160946  0.60157902  0.91045065  1
  O  O4810  1  0.98324691  0.93008919  0.94777091  1
  C  C4811  1  0.80891087  0.65314717  0.94165521  1
  H  H4812  1  0.86908140  0.62939207  0.90394701  1
  C  C4813  1  0.84879065  0.61860022  0.91557053  1
  O  O4814  1  0.91214004  0.78547761  0.96689309  1
  O  O4815  1  0.81717490  0.76333553  0.99177891  1
  H  H4816  1  0.96443149  0.61065428  0.96316852  1
  O  O4817  1  0.95825713  0.59224836  0.88924571  1
  C  C4818  1  0.80664083  0.59607789  0.99143719  1
  C  C4819  1  0.79282046  0.53877253  0.98598124  1
  H  H4820  1  0.77052187  0.68691189  0.96487234  1
  H  H4821  1  0.85312381  0.67459694  0.99149848  1
  O  O4822  1  0.89659562  0.91543283  0.98373051  1
  C  C4823  1  0.88585768  0.74946816  0.87961045  1
  C  C4824  1  0.81902213  0.78794442  0.89437569  1
  H  H4825  1  0.96932248  0.76424858  0.89540299  1
  C  C4826  1  0.93369046  0.70515135  0.94200240  1
  H  H4827  1  0.82789473  0.69616812  0.88465776  1
  O  O4828  1  0.87211408  0.99650926  0.93962475  1
  C  C4829  1  0.96598969  0.59748639  0.99231567  1
  C  C4830  1  0.87994972  0.85684415  0.88703562  1
  H  H4831  1  0.92314678  0.91553670  0.99041979  1
  H  H4832  1  0.95685327  0.62195723  0.93298901  1
  H  H4833  1  0.83289408  0.64531438  0.96983139  1
  C  C4834  1  0.95751441  0.74935669  0.90837555  1
  C  C4835  1  0.90763779  0.53565222  0.92197162  1
  C  C4836  1  0.94096354  0.78917050  0.92085236  1
  Zn  Zn4837  1  0.92015289  0.94592893  0.95944021  1
  C  C4838  1  0.91938895  0.60678760  0.99333211  1
  C  C4839  1  0.82401293  0.77641623  0.93493998  1
  C  C4840  1  0.96283756  0.68872973  0.91228754  1
  C  C4841  1  0.78592610  0.59693332  0.89288512  1
  C  C4842  1  0.84598603  0.73286237  0.92481964  1
  O  O4843  1  0.90722122  0.85798639  0.94788327  1
  C  C4844  1  0.95310033  0.66791969  0.93005016  1
  C  C4845  1  0.93212160  0.76518784  0.93754822  1
  H  H4846  1  0.82964103  0.82295833  0.93143409  1
  O  O4847  1  0.89319327  0.61971705  0.97972186  1
  C  C4848  1  0.78956511  0.79901212  0.98656621  1
  C  C4849  1  0.79740409  0.58561590  0.94242108  1
  C  C4850  1  0.78847977  0.96639304  0.95073292  1
  C  C4851  1  0.77451853  0.58208307  0.92432264  1
  O  O4852  1  0.81374048  0.61077988  0.88013923  1
  C  C4853  1  0.87003795  0.56838229  0.92684644  1
  Zn  Zn4854  1  0.87790402  0.82937528  0.98843002  1
  H  H4855  1  0.83857313  0.53041434  0.89846737  1
  C  C4856  1  0.91655151  0.80614601  0.95160725  1
  H  H4857  1  0.86960776  0.74549755  0.91368772  1
  C  C4858  1  0.83936832  0.84599501  0.89476449  1
  H  H4859  1  0.78290647  0.78946863  0.95852020  1
  O  O4860  1  0.80379753  0.84929304  0.98184423  1
  C  C4861  1  0.84319099  0.74128911  0.88608949  1
  C  C4862  1  0.79990961  0.75858072  0.94987093  1
  H  H4863  1  0.93626516  0.83434776  0.91761468  1
  C  C4864  1  0.79145919  0.69679063  0.95311195  1
  H  H4865  1  0.77595595  0.57201525  0.95400345  1
  C  C4866  1  0.97872681  0.53842995  0.89025810  1
  H  H4867  1  0.81062509  0.93918608  0.94263476  1
  H  H4868  1  0.91987021  0.68783359  0.95435653  1
  C  C4869  1  0.83519121  0.67192627  0.92807329  1
  C  C4870  1  0.75599724  0.51180818  0.99434275  1
  H  H4871  1  0.80637749  0.52080622  0.97406392  1
