# generated using pymatgen
data_Cu2H9C19(NO4)2
_symmetry_space_group_name_H-M   'P 1'
_cell_length_a   16.83573209
_cell_length_b   25.45899207
_cell_length_c   39.55941649
_cell_angle_alpha   90.00000000
_cell_angle_beta   90.00000000
_cell_angle_gamma   90.00000000
_symmetry_Int_Tables_number   1
_chemical_formula_structural   Cu2H9C19(NO4)2
_chemical_formula_sum   'Cu64 H288 C608 N64 O256'
_cell_volume   16955.98754595
_cell_formula_units_Z   32
loop_
 _symmetry_equiv_pos_site_id
 _symmetry_equiv_pos_as_xyz
  1  'x, y, z'
loop_
 _atom_site_type_symbol
 _atom_site_label
 _atom_site_symmetry_multiplicity
 _atom_site_fract_x
 _atom_site_fract_y
 _atom_site_fract_z
 _atom_site_occupancy
  C  C0  1  0.47162576  0.09187304  0.17316893  1
  C  C1  1  0.49570031  0.01514523  0.05091379  1
  H  H2  1  0.29334047  0.03216385  0.05735555  1
  N  N3  1  0.20525175  0.16709687  0.05725450  1
  N  N4  1  0.32354283  0.13352894  0.04651769  1
  C  C5  1  0.45161817  0.17766922  0.19895168  1
  C  C6  1  0.36345772  0.10850996  0.21816879  1
  C  C7  1  0.25527808  0.20519713  0.04512627  1
  O  O8  1  0.15154137  0.09908981  0.22404420  1
  O  O9  1  0.04271609  0.05111126  0.21611162  1
  Cu  Cu10  1  0.22611165  0.04753842  0.22361729  1
  H  H11  1  0.41424574  0.20104881  0.21664792  1
  H  H12  1  0.14164715  0.10581387  0.10466289  1
  C  C13  1  0.35771308  0.04125242  0.05309964  1
  O  O14  1  0.32758295  0.06227161  0.21532105  1
  C  C15  1  0.01137140  0.04371211  0.00492097  1
  C  C16  1  0.38433570  0.09290722  0.04311816  1
  C  C17  1  0.46079568  0.10372791  0.03296723  1
  H  H18  1  0.21907951  0.08283713  0.06264916  1
  C  C19  1  0.07704270  0.09413664  0.22182936  1
  H  H20  1  0.47563399  0.14351479  0.02444732  1
  H  H21  1  0.08698735  0.23695933  0.03326078  1
  C  C22  1  0.43445306  0.49292399  0.17160337  1
  C  C23  1  0.24688353  0.12206339  0.05685214  1
  O  O24  1  0.33497894  0.13874216  0.23759925  1
  C  C25  1  0.12249917  0.17221478  0.07000937  1
  Cu  Cu26  1  0.02675107  0.01257128  0.17012849  1
  N  N27  1  0.49953717  0.24067853  0.08184140  1
  C  C28  1  0.42920452  0.12507490  0.19512973  1
  H  H29  1  0.38023481  0.20827865  0.02817602  1
  O  O30  1  0.04862115  0.07177543  0.14796524  1
  H  H31  1  0.43059301  0.39482255  0.03934730  1
  O  O32  1  0.29086630  0.47823532  0.06706049  1
  C  C33  1  0.10376157  0.13804924  0.09561655  1
  C  C34  1  0.02963502  0.14387191  0.11208595  1
  C  C35  1  0.33045108  0.18557476  0.03838976  1
  H  H36  1  0.12594609  0.18607351  0.23369595  1
  H  H37  1  0.37208967  0.16517151  0.12409226  1
  O  O38  1  0.14246479  0.41144109  0.08359891  1
  O  O39  1  0.09867687  0.01220994  0.08701875  1
  C  C40  1  0.07110490  0.21097576  0.05475160  1
  O  O41  1  0.18011945  0.35443359  0.04420345  1
  H  H42  1  0.30632014  0.29720391  0.23316651  1
  C  C43  1  0.45472589  0.30938615  0.24127351  1
  C  C44  1  0.48609515  0.19523843  0.09787764  1
  C  C45  1  0.40875568  0.19731713  0.11191023  1
  H  H46  1  0.29565459  0.23545188  0.16700447  1
  H  H47  1  0.36999202  0.36875781  0.18834699  1
  O  O48  1  0.42186973  0.29435599  0.21106193  1
  H  H49  1  0.43224459  0.28572558  0.15984168  1
  C  C50  1  0.30182117  0.45908529  0.19409570  1
  Cu  Cu51  1  0.17039310  0.40752769  0.22918994  1
  C  C52  1  0.38415868  0.45104125  0.18111008  1
  C  C53  1  0.27591030  0.26661970  0.14986989  1
  O  O54  1  0.14479473  0.34413555  0.20120831  1
  Cu  Cu55  1  0.10794326  0.35404967  0.01089578  1
  C  C56  1  0.48012657  0.39239699  0.02218481  1
  H  H57  1  0.43521034  0.31616528  0.08262424  1
  C  C58  1  0.18174458  0.30366082  0.19226327  1
  H  H59  1  0.29054582  0.30255035  0.06443504  1
  C  C60  1  0.17969522  0.36989879  0.07416342  1
  C  C61  1  0.47477905  0.29130853  0.18020651  1
  C  C62  1  0.21633184  0.30316657  0.15743527  1
  C  C63  1  0.40878670  0.40083667  0.17823235  1
  N  N64  1  0.38110769  0.24671506  0.10712592  1
  C  C65  1  0.48560673  0.38693573  0.16638684  1
  C  C66  1  0.21542994  0.33739142  0.10065376  1
  O  O67  1  0.18912800  0.26586789  0.21202424  1
  C  C68  1  0.19133268  0.34062485  0.13463385  1
  H  H69  1  0.14882397  0.36980138  0.14431268  1
  Cu  Cu70  1  0.17979598  0.48123279  0.08234835  1
  O  O71  1  0.25790903  0.42148629  0.20010937  1
  C  C72  1  0.43783855  0.27442370  0.08950775  1
  C  C73  1  0.27077504  0.30064009  0.09104402  1
  C  C74  1  0.30367455  0.26858772  0.11703707  1
  H  H75  1  0.23242258  0.24628715  0.04524849  1
  C  C76  1  0.41522540  0.00197187  0.05511042  1
  C  C77  1  0.06422606  0.18428362  0.23786717  1
  H  H78  1  0.45147253  0.05209634  0.17057686  1
  C  C79  1  0.00064633  0.21276631  0.07307598  1
  H  H80  1  0.36954224  0.49188183  0.00974503  1
  C  C81  1  0.02324108  0.13864664  0.23037787  1
  C  C82  1  0.00275438  0.10851728  0.13832279  1
  N  N83  1  0.29197290  0.23002023  0.39075365  1
  N  N84  1  0.20733708  0.20942390  0.35013672  1
  C  C85  1  0.28187782  0.19119735  0.36423055  1
  H  H86  1  0.27201080  0.14950949  0.37254467  1
  C  C87  1  0.19744993  0.12975248  0.32019973  1
  C  C88  1  0.12258951  0.07609632  0.43804936  1
  O  O89  1  0.35773290  0.17971729  0.34047345  1
  C  C90  1  0.31901465  0.31171121  0.25932915  1
  C  C91  1  0.01694591  0.01520433  0.41977031  1
  H  H92  1  0.26335140  0.12655426  0.32452088  1
  C  C93  1  0.16096229  0.17788324  0.32776001  1
  C  C94  1  0.46969523  0.12726364  0.32977827  1
  H  H95  1  0.14678448  0.11035187  0.45083361  1
  C  C96  1  0.46792259  0.21726465  0.46486247  1
  C  C97  1  0.01967811  0.22468641  0.25335096  1
  O  O98  1  0.27093910  0.10334739  0.44226464  1
  C  C99  1  0.38482909  0.17661271  0.42406535  1
  Cu  Cu100  1  0.41707206  0.01363522  0.44821900  1
  O  O101  1  0.47284208  0.35828044  0.45342171  1
  C  C102  1  0.35478212  0.22646470  0.41425391  1
  C  C103  1  0.15238966  0.08437878  0.31710178  1
  C  C104  1  0.44017786  0.17140963  0.44956719  1
  H  H105  1  0.36377066  0.14150337  0.41193350  1
  C  C106  1  0.18063434  0.04415209  0.42375384  1
  C  C107  1  0.26566482  0.06222997  0.42802226  1
  O  O108  1  0.18192022  0.46207451  0.26419539  1
  O  O109  1  0.35891837  0.09531141  0.35723233  1
  C  C110  1  0.07001482  0.08400788  0.31811648  1
  O  O111  1  0.32520092  0.03107586  0.42141633  1
  C  C112  1  0.24152918  0.29185209  0.48540295  1
  O  O113  1  0.45647268  0.08392208  0.44036351  1
  C  C114  1  0.38861454  0.13242195  0.34182462  1
  C  C115  1  0.47301216  0.12062533  0.45928420  1
  H  H116  1  0.47240377  0.20805951  0.31563994  1
  H  H117  1  0.03505263  0.04604160  0.31684026  1
  C  C118  1  0.07547027  0.18039693  0.32682293  1
  H  H119  1  0.04376736  0.21584214  0.32859425  1
  C  C120  1  0.39667064  0.31663957  0.26973492  1
  C  C121  1  0.03606384  0.13317747  0.32244766  1
  C  C122  1  0.09723764  0.42604828  0.35955335  1
  C  C123  1  0.18872472  0.25711074  0.36050749  1
  C  C124  1  0.44161566  0.26651141  0.45372806  1
  C  C125  1  0.38313481  0.27409972  0.42976655  1
  C  C126  1  0.24368638  0.27169452  0.38554928  1
  O  O127  1  0.31799379  0.37207869  0.37757634  1
  N  N128  1  0.06924122  0.26806403  0.26143827  1
  C  C129  1  0.15172229  0.27044127  0.25299012  1
  C  C130  1  0.05025507  0.47677297  0.35803268  1
  H  H131  1  0.13971442  0.27984606  0.34949812  1
  C  C132  1  0.17182475  0.27514836  0.47003658  1
  C  C133  1  0.17170821  0.35831973  0.44028051  1
  O  O134  1  0.17413656  0.42824297  0.35384035  1
  H  H135  1  0.48324758  0.34221259  0.30859755  1
  Cu  Cu136  1  0.35533517  0.02674387  0.34182069  1
  C  C137  1  0.13564390  0.31045373  0.44625984  1
  O  O138  1  0.23789495  0.45350682  0.42949632  1
  N  N139  1  0.06707407  0.29076866  0.42839856  1
  O  O140  1  0.06626789  0.38524081  0.36799160  1
  H  H141  1  0.32491622  0.35503245  0.49716834  1
  C  C142  1  0.11326473  0.33858252  0.28804254  1
  C  C143  1  0.23694427  0.37672254  0.45955175  1
  H  H144  1  0.12353767  0.37342843  0.30535532  1
  C  C145  1  0.04486054  0.31005944  0.27987900  1
  H  H146  1  0.24404275  0.30449562  0.40383067  1
  O  O147  1  0.44796936  0.36428673  0.36576118  1
  Cu  Cu148  1  0.26012783  0.43202400  0.38452654  1
  C  C149  1  0.04000651  0.06196834  0.43642191  1
  O  O150  1  0.32669869  0.44907787  0.47023148  1
  C  C151  1  0.27250982  0.42894565  0.45198804  1
  N  N152  1  0.17494331  0.31140831  0.27560660  1
  O  O153  1  0.26919372  0.03571455  0.31156060  1
  H  H154  1  0.22949202  0.35250857  0.33171790  1
  C  C155  1  0.37591666  0.36138442  0.35839224  1
  H  H156  1  0.15228385  0.38668051  0.42246753  1
  H  H157  1  0.35970063  0.31264925  0.42081743  1
  C  C158  1  0.35941829  0.34506244  0.32289421  1
  C  C159  1  0.19534764  0.03504242  0.31530602  1
  C  C160  1  0.42194439  0.33346893  0.30088007  1
  C  C161  1  0.27327420  0.34312648  0.48179733  1
  C  C162  1  0.27947985  0.34475686  0.31386114  1
  C  C163  1  0.25673740  0.32512191  0.28222840  1
  C  C164  1  0.47819140  0.31557372  0.46840630  1
  O  O165  1  0.42023944  0.48788552  0.42054669  1
  H  H166  1  0.18819135  0.23277158  0.25620484  1
  H  H167  1  0.09742670  0.20734505  0.42274674  1
  H  H168  1  0.14570633  0.23862885  0.47444350  1
  H  H169  1  0.06427341  0.14925007  0.47140800  1
  C  C170  1  0.05166855  0.23824516  0.41985575  1
  C  C171  1  0.48839721  0.48170018  0.40553898  1
  C  C172  1  0.00362279  0.13310692  0.47453428  1
  H  H173  1  0.48377521  0.04676059  0.34457602  1
  H  H174  1  0.03404009  0.48015671  0.26374903  1
  O  O175  1  0.16668312  0.22562093  0.58658336  1
  O  O176  1  0.24936461  0.21380273  0.51444468  1
  O  O177  1  0.33443276  0.12958259  0.69866236  1
  H  H178  1  0.38254562  0.04626367  0.62764000  1
  H  H179  1  0.38341306  0.21604584  0.69749732  1
  C  C180  1  0.37831153  0.13388023  0.58790040  1
  O  O181  1  0.30358098  0.13409069  0.58816722  1
  O  O182  1  0.41701387  0.17576697  0.58483809  1
  Cu  Cu183  1  0.37862053  0.22036107  0.55649369  1
  Cu  Cu184  1  0.23414052  0.18147052  0.56096633  1
  C  C185  1  0.41152143  0.04188039  0.60183193  1
  C  C186  1  0.39902342  0.11586583  0.69114267  1
  C  C187  1  0.41539623  0.46525152  0.65443954  1
  C  C188  1  0.46368682  0.15780548  0.68686270  1
  O  O189  1  0.10605127  0.48578158  0.70846020  1
  H  H190  1  0.39656310  0.27037046  0.61715208  1
  O  O191  1  0.19402424  0.49652233  0.54577846  1
  H  H192  1  0.28436414  0.27093333  0.59640062  1
  C  C193  1  0.46438358  0.37716521  0.58496354  1
  O  O194  1  0.04362549  0.35514053  0.72415411  1
  C  C195  1  0.26636853  0.30797952  0.58634489  1
  C  C196  1  0.13727315  0.26892020  0.57512757  1
  C  C197  1  0.41343847  0.08219120  0.57960381  1
  C  C198  1  0.48760337  0.43996561  0.66089819  1
  C  C199  1  0.40159472  0.37666106  0.69203951  1
  C  C200  1  0.16272459  0.36023657  0.55710259  1
  C  C201  1  0.18900390  0.31495408  0.57409857  1
  C  C202  1  0.43434728  0.29737903  0.60189034  1
  C  C203  1  0.21374072  0.40217823  0.55541242  1
  C  C204  1  0.28745926  0.40017998  0.57094757  1
  H  H205  1  0.35422066  0.40609172  0.69749862  1
  H  H206  1  0.37332342  0.29379316  0.71289585  1
  H  H207  1  0.10421815  0.36337269  0.54420393  1
  H  H208  1  0.17846139  0.41892453  0.74154360  1
  O  O209  1  0.42144802  0.06768096  0.68684657  1
  C  C210  1  0.28144916  0.25728623  0.51051189  1
  C  C211  1  0.17165577  0.44829673  0.53725454  1
  O  O212  1  0.11470570  0.44058048  0.51997545  1
  H  H213  1  0.36169840  0.44205466  0.65287617  1
  C  C214  1  0.31796714  0.35151724  0.58439734  1
  O  O215  1  0.34570404  0.26786538  0.52550792  1
  H  H216  1  0.32603754  0.43503425  0.57022395  1
  N  N217  1  0.40028872  0.34585714  0.59131254  1
  C  C218  1  0.40896188  0.32214430  0.69896733  1
  O  O219  1  0.06915447  0.26784357  0.56285627  1
  C  C220  1  0.38180808  0.49259851  0.73275026  1
  C  C221  1  0.44577279  0.21058965  0.69230614  1
  C  C222  1  0.24182434  0.48711774  0.72144376  1
  C  C223  1  0.45620415  0.07750475  0.55009336  1
  N  N224  1  0.48255701  0.30488084  0.68908376  1
  C  C225  1  0.44461597  0.48090573  0.52590076  1
  N  N226  1  0.47283539  0.38813994  0.67734456  1
  Cu  Cu227  1  0.48074893  0.03268082  0.71931515  1
  C  C228  1  0.23373676  0.44222466  0.74165659  1
  H  H229  1  0.48132491  0.40294202  0.50998803  1
  H  H230  1  0.45855437  0.11084454  0.53126752  1
  H  H231  1  0.45579465  0.41622167  0.57326024  1
  C  C232  1  0.49569310  0.44428207  0.51511795  1
  C  C233  1  0.49103907  0.02901139  0.54115667  1
  O  O234  1  0.12036447  0.29909313  0.74889072  1
  C  C235  1  0.06804786  0.33155871  0.74858106  1
  O  O236  1  0.16923527  0.20303008  0.89989469  1
  O  O237  1  0.20452091  0.01921927  0.87249737  1
  O  O238  1  0.32948242  0.13813812  0.86135318  1
  O  O239  1  0.40441593  0.13162440  0.95438877  1
  O  O240  1  0.44607042  0.12415768  0.88682828  1
  O  O241  1  0.41471826  0.02652388  0.78971214  1
  C  C242  1  0.07592741  0.13621659  0.91337246  1
  H  H243  1  0.28958616  0.19682786  0.96246299  1
  C  C244  1  0.25461295  0.31762225  0.81544757  1
  Cu  Cu245  1  0.44924763  0.08223913  0.92871465  1
  C  C246  1  0.15424108  0.15546880  0.90551164  1
  C  C247  1  0.44143278  0.17167963  0.96464882  1
  O  O248  1  0.20541167  0.11854343  0.90678132  1
  Cu  Cu249  1  0.26569545  0.08544140  0.87384776  1
  H  H250  1  0.10838749  0.05526894  0.92047657  1
  C  C251  1  0.06028826  0.08426729  0.92223819  1
  C  C252  1  0.40975865  0.22392631  0.97143878  1
  C  C253  1  0.41131503  0.21017577  0.86824340  1
  C  C254  1  0.39631268  0.15470114  0.87304591  1
  O  O255  1  0.48992112  0.02654355  0.90429225  1
  O  O256  1  0.43145195  0.00865116  0.85387341  1
  N  N257  1  0.48629999  0.35109940  0.99915431  1
  N  N258  1  0.33326205  0.32300180  0.82127088  1
  C  C259  1  0.28663874  0.49585151  0.89606730  1
  H  H260  1  0.09179501  0.28423098  0.81536309  1
  H  H261  1  0.31079350  0.22531566  0.83603520  1
  C  C262  1  0.36101980  0.24073578  0.84870521  1
  C  C263  1  0.13337929  0.48636470  0.87995195  1
  Cu  Cu264  1  0.12857909  0.26852279  0.92051664  1
  C  C265  1  0.38384004  0.29294169  0.84363167  1
  C  C266  1  0.02605719  0.34315840  0.78449373  1
  H  H267  1  0.09014016  0.44432987  0.98997279  1
  C  C268  1  0.32593083  0.23070436  0.96930241  1
  H  H269  1  0.32162058  0.35871185  0.99845620  1
  H  H270  1  0.02445685  0.21481493  0.90373463  1
  H  H271  1  0.47114479  0.35666583  0.85854468  1
  C  C272  1  0.47637606  0.22959269  0.88625374  1
  C  C273  1  0.45025888  0.31591294  0.86066568  1
  C  C274  1  0.21455177  0.29690163  0.97309762  1
  H  H275  1  0.27100024  0.48103689  0.92154938  1
  O  O276  1  0.11259717  0.46195300  0.90828113  1
  C  C277  1  0.02046848  0.31391715  0.87539573  1
  H  H278  1  0.22195307  0.28388122  0.82444170  1
  O  O279  1  0.16678807  0.26407427  0.96262320  1
  O  O280  1  0.18786714  0.34385548  0.97869031  1
  C  C281  1  0.23587661  0.35715099  0.79314404  1
  O  O282  1  0.07962297  0.28471709  0.87997804  1
  C  C283  1  0.29683960  0.27989076  0.97865316  1
  C  C284  1  0.36277444  0.36461787  0.80159103  1
  N  N285  1  0.30396078  0.38452920  0.78333553  1
  H  H286  1  0.30502425  0.01051556  0.82911705  1
  H  H287  1  0.43146886  0.43643133  0.76567880  1
  C  C288  1  0.46052258  0.26258753  0.98325764  1
  C  C289  1  0.42681395  0.31220165  0.99185626  1
  H  H290  1  0.18004733  0.49216817  0.98495580  1
  H  H291  1  0.42192505  0.38271513  0.80065378  1
  C  C292  1  0.34458116  0.31961068  0.99234756  1
  Cu  Cu293  1  0.49941928  0.02749477  0.81859022  1
  C  C294  1  0.37915380  0.44829562  0.75381141  1
  O  O295  1  0.08593578  0.49771941  0.85922076  1
  C  C296  1  0.30420099  0.42675707  0.75833645  1
  C  C297  1  0.04687726  0.31754075  0.81427675  1
  O  O298  1  0.03148479  0.35975472  0.98140529  1
  Cu  Cu299  1  0.00771165  0.44668699  0.91433226  1
  C  C300  1  0.00171247  0.33551102  0.84186247  1
  C  C301  1  0.49571221  0.28190115  0.88014528  1
  H  H302  1  0.17831236  0.36729594  0.78330430  1
  C  C303  1  0.01532647  0.17507435  0.91421373  1
  H  H304  1  0.04254054  0.07938477  0.99940706  1
  O  O305  1  0.18057033  0.03000796  0.99728493  1
  C  C306  1  0.03217132  0.46443657  0.99864206  1
  C  C307  1  0.46175761  0.66919924  0.21108072  1
  C  C308  1  0.29182735  0.69072450  0.07947246  1
  C  C309  1  0.33404346  0.67277348  0.11032822  1
  C  C310  1  0.21883306  0.66124754  0.03188440  1
  H  H311  1  0.42012733  0.53445298  0.17220255  1
  H  H312  1  0.06913355  0.62276912  0.03648686  1
  O  O313  1  0.35305860  0.62538919  0.11527946  1
  C  C314  1  0.45830491  0.56490999  0.07076106  1
  C  C315  1  0.13316108  0.57199436  0.11655987  1
  C  C316  1  0.22516565  0.57127134  0.00105097  1
  C  C317  1  0.26642264  0.64860311  0.05936593  1
  C  C318  1  0.39524417  0.69579482  0.22357242  1
  Cu  Cu319  1  0.28358609  0.57290774  0.12720834  1
  H  H320  1  0.04232204  0.75941736  0.10574762  1
  H  H321  1  0.17912469  0.68867147  0.20397157  1
  O  O322  1  0.18844495  0.60458678  0.11886774  1
  C  C323  1  0.41838774  0.71886958  0.01672412  1
  H  H324  1  0.45967781  0.57044989  0.09803035  1
  C  C325  1  0.05728366  0.61788114  0.22416775  1
  C  C326  1  0.04164729  0.64516263  0.11734009  1
  H  H327  1  0.28441841  0.60891761  0.06712763  1
  C  C328  1  0.11164222  0.59708093  0.02217971  1
  O  O329  1  0.13407241  0.81258779  0.02078067  1
  C  C330  1  0.14463033  0.99160882  0.00423685  1
  N  N331  1  0.05579524  0.67372123  0.21563199  1
  C  C332  1  0.11991573  0.70369156  0.20621357  1
  H  H333  1  0.15008478  0.71958974  0.00405041  1
  O  O334  1  0.44687199  0.91698777  0.06490719  1
  H  H335  1  0.09367416  0.67150523  0.11668259  1
  H  H336  1  0.35929255  0.71661890  0.03091390  1
  Cu  Cu337  1  0.34265071  0.51418793  0.24878714  1
  C  C338  1  0.02840630  0.88240757  0.11074156  1
  H  H339  1  0.10084492  0.97264250  0.24240152  1
  C  C340  1  0.05445812  0.59088981  0.11762768  1
  O  O341  1  0.35818283  0.70948314  0.12873752  1
  C  C342  1  0.26874719  0.74267026  0.07420197  1
  H  H343  1  0.38365304  0.73540124  0.21258690  1
  C  C344  1  0.48183516  0.62121627  0.22708402  1
  H  H345  1  0.11943152  0.79298912  0.19855333  1
  C  C346  1  0.34483821  0.50597240  0.07917223  1
  O  O347  1  0.49920907  0.73222312  0.16872145  1
  C  C348  1  0.41259587  0.51754924  0.02240050  1
  Cu  Cu349  1  0.48639825  0.87517158  0.03042559  1
  N  N350  1  0.00880098  0.75274073  0.20970866  1
  H  H351  1  0.18361825  0.60807359  0.23522946  1
  O  O352  1  0.18066387  0.94625989  0.01045950  1
  C  C353  1  0.40437178  0.52961276  0.05613055  1
  Cu  Cu354  1  0.45986726  0.74630374  0.12388203  1
  O  O355  1  0.31817598  0.93866445  0.07318861  1
  Cu  Cu356  1  0.23017831  0.91908614  0.04874492  1
  C  C357  1  0.18879305  0.71252938  0.02627093  1
  C  C358  1  0.03902779  0.51797970  0.24973233  1
  C  C359  1  0.02343354  0.93667985  0.10407595  1
  O  O360  1  0.15931592  0.93830116  0.08459436  1
  C  C361  1  0.21570666  0.75240711  0.04830242  1
  N  N362  1  0.18732805  0.61275616  0.01700247  1
  H  H363  1  0.03232679  0.86175002  0.19949644  1
  H  H364  1  0.28576711  0.77444901  0.09252972  1
  C  C365  1  0.18777268  0.80668159  0.03943912  1
  H  H366  1  0.08323305  0.85990943  0.10498215  1
  C  C367  1  0.18393081  0.90802973  0.23399729  1
  O  O368  1  0.43124280  0.77102607  0.08168713  1
  O  O369  1  0.15052941  0.52082220  0.11672203  1
  C  C370  1  0.08985904  0.75540948  0.20333393  1
  C  C371  1  0.22142824  0.94238691  0.20707650  1
  C  C372  1  0.09707830  0.96428079  0.09180656  1
  O  O373  1  0.22088995  0.84522242  0.05669146  1
  C  C374  1  0.47808315  0.78172342  0.05861524  1
  O  O375  1  0.28157228  0.92292479  0.19510314  1
  C  C376  1  0.39103344  0.94846562  0.06433531  1
  O  O377  1  0.34599128  0.52244567  0.10921396  1
  C  C378  1  0.21725944  0.85854321  0.23920780  1
  C  C379  1  0.12401068  0.58932709  0.23501869  1
  C  C380  1  0.01682809  0.94875541  0.01166243  1
  O  O381  1  0.29683378  0.50414680  0.20675419  1
  O  O382  1  0.19837056  0.98993246  0.19814062  1
  C  C383  1  0.11579487  0.53812636  0.24535226  1
  H  H384  1  0.26652376  0.84028352  0.22411207  1
  C  C385  1  0.05315643  0.99609645  0.00612969  1
  C  C386  1  0.48159909  0.74962638  0.02627377  1
  H  H387  1  0.00789313  0.51396268  0.12079925  1
  C  C388  1  0.47077927  0.54531875  0.00310400  1
  C  C389  1  0.11817139  0.93324312  0.24711765  1
  C  C390  1  0.03150809  0.51746879  0.01112881  1
  N  N391  1  0.10153731  0.54806986  0.00838725  1
  H  H392  1  0.05341024  0.91270329  0.01519747  1
  Cu  Cu393  1  0.07976620  0.70973772  0.37184026  1
  C  C394  1  0.04259479  0.56737494  0.35083150  1
  C  C395  1  0.18664113  0.51142561  0.26047349  1
  H  H396  1  0.33022448  0.61431452  0.36035583  1
  C  C397  1  0.08581079  0.52269105  0.34570699  1
  H  H398  1  0.14048506  0.52150985  0.33255372  1
  O  O399  1  0.40597450  0.52694433  0.28462820  1
  O  O400  1  0.44204339  0.57100878  0.45036404  1
  O  O401  1  0.23592040  0.69339832  0.39993253  1
  C  C402  1  0.36525998  0.65132650  0.35394406  1
  C  C403  1  0.07869880  0.98226074  0.40887072  1
  C  C404  1  0.07418199  0.62004804  0.33663266  1
  N  N405  1  0.41214891  0.72576546  0.33319671  1
  O  O406  1  0.11640585  0.90800642  0.37986785  1
  C  C407  1  0.44142011  0.60468550  0.25507466  1
  H  H408  1  0.41118199  0.56638588  0.38726811  1
  O  O409  1  0.44779203  0.63867159  0.48400817  1
  C  C410  1  0.34346020  0.69983996  0.34397441  1
  C  C411  1  0.15966110  0.99738917  0.40903840  1
  H  H412  1  0.20308661  0.97181235  0.39811856  1
  C  C413  1  0.46204588  0.83876887  0.27824658  1
  C  C414  1  0.29216203  0.72916784  0.49540378  1
  O  O415  1  0.13163320  0.61969691  0.31913061  1
  H  H416  1  0.34390529  0.61478702  0.29043212  1
  Cu  Cu417  1  0.16328789  0.89837981  0.47047653  1
  O  O418  1  0.25391502  0.92358993  0.44689657  1
  H  H419  1  0.37724176  0.71628249  0.40097683  1
  N  N420  1  0.44735338  0.65104032  0.34934407  1
  C  C421  1  0.46681096  0.56219734  0.37484134  1
  O  O422  1  0.07885969  0.86473458  0.49271981  1
  C  C423  1  0.43871805  0.78986443  0.49575912  1
  O  O424  1  0.15810936  0.62258475  0.49666886  1
  H  H425  1  0.28651176  0.71504853  0.33670676  1
  C  C426  1  0.21880399  0.73967412  0.40078256  1
  C  C427  1  0.21770765  0.69269547  0.27730788  1
  C  C428  1  0.22068488  0.70477643  0.49623882  1
  C  C429  1  0.16774439  0.73568360  0.28142012  1
  C  C430  1  0.36087082  0.75550751  0.41044544  1
  C  C431  1  0.33996577  0.86174289  0.42775846  1
  H  H432  1  0.42020148  0.91926813  0.28128525  1
  C  C433  1  0.08352078  0.89985822  0.27243534  1
  H  H434  1  0.32515799  0.81211375  0.35688143  1
  O  O435  1  0.03578238  0.66131338  0.34362792  1
  H  H436  1  0.10362875  0.73748139  0.28823750  1
  C  C437  1  0.47715096  0.69638513  0.33857373  1
  H  H438  1  0.07676512  0.82503156  0.30042899  1
  O  O439  1  0.35940977  0.96117832  0.32745298  1
  C  C440  1  0.37309404  0.62890668  0.26772027  1
  O  O441  1  0.14539829  0.75165665  0.39394903  1
  N  N442  1  0.21138233  0.77844228  0.27239430  1
  C  C443  1  0.36508514  0.81880774  0.33441047  1
  C  C444  1  0.33562554  0.91633153  0.33649755  1
  Cu  Cu445  1  0.38566451  0.51130812  0.46029381  1
  C  C446  1  0.17627138  0.82932790  0.26375421  1
  C  C447  1  0.46467009  0.55420116  0.27145269  1
  C  C448  1  0.10969609  0.84944838  0.28067632  1
  C  C449  1  0.42161715  0.87979605  0.29359286  1
  O  O450  1  0.01049604  0.78948330  0.49228813  1
  C  C451  1  0.32764930  0.91240413  0.44362007  1
  C  C452  1  0.42821237  0.78839782  0.41642025  1
  C  C453  1  0.41046402  0.77898062  0.31882844  1
  C  C454  1  0.05929413  0.93288416  0.39303198  1
  O  O455  1  0.24864559  0.53522686  0.26605510  1
  C  C456  1  0.41674619  0.84138627  0.42440961  1
  O  O457  1  0.28704162  0.62434033  0.49014098  1
  C  C458  1  0.28583025  0.77648624  0.41294206  1
  C  C459  1  0.37259119  0.86832581  0.32116234  1
  H  H460  1  0.21651358  0.84521429  0.42282464  1
  C  C461  1  0.27441949  0.82858998  0.42027318  1
  O  O462  1  0.38224379  0.94223552  0.45533571  1
  Cu  Cu463  1  0.17253479  0.93385457  0.34342061  1
  O  O464  1  0.27434003  0.91334745  0.35399761  1
  H  H465  1  0.34914838  0.70639572  0.48941454  1
  H  H466  1  0.20645058  0.65068345  0.28350573  1
  H  H467  1  0.08996268  0.70796497  0.49249674  1
  C  C468  1  0.49512545  0.60214130  0.35457708  1
  N  N469  1  0.29011738  0.70961548  0.26471777  1
  H  H470  1  0.46844096  0.86578631  0.43006057  1
  C  C471  1  0.01145164  0.91771826  0.28943432  1
  C  C472  1  0.28669818  0.76285499  0.26303484  1
  C  C473  1  0.14675355  0.73002107  0.49762574  1
  C  C474  1  0.07126204  0.81401455  0.49411673  1
  C  C475  1  0.22153557  0.64760131  0.49368953  1
  H  H476  1  0.44735189  0.75343617  0.48182935  1
  C  C477  1  0.45799911  0.78637798  0.29007904  1
  O  O478  1  0.15750182  0.99099447  0.31568330  1
  H  H479  1  0.48951996  0.75187888  0.27799617  1
  H  H480  1  0.49935342  0.68918872  0.43470847  1
  C  C481  1  0.48375717  0.60416452  0.46597604  1
  O  O482  1  0.15759384  0.95438090  0.49896862  1
  C  C483  1  0.35633993  0.67745388  0.25231006  1
  H  H484  1  0.48542499  0.94392180  0.49895934  1
  H  H485  1  0.33284059  0.78486340  0.25083484  1
  Cu  Cu486  1  0.18580374  0.56050872  0.63607091  1
  C  C487  1  0.04699171  0.67941014  0.66714265  1
  O  O488  1  0.46724890  0.63351818  0.55059323  1
  O  O489  1  0.30711498  0.67506778  0.68111918  1
  O  O490  1  0.35250513  0.60237205  0.63281935  1
  O  O491  1  0.18666254  0.60248624  0.55914265  1
  C  C492  1  0.14727888  0.70126956  0.57346472  1
  C  C493  1  0.27759526  0.71580302  0.69667936  1
  O  O494  1  0.31576635  0.61616889  0.56082048  1
  C  C495  1  0.28524541  0.72330506  0.57974462  1
  C  C496  1  0.06728582  0.72277717  0.68644286  1
  O  O497  1  0.28576280  0.52831301  0.63581100  1
  C  C498  1  0.10895694  0.65238926  0.64733860  1
  C  C499  1  0.24743175  0.63316118  0.56491653  1
  O  O500  1  0.18212273  0.54488290  0.68410049  1
  H  H501  1  0.35039596  0.71270024  0.57989488  1
  H  H502  1  0.10411480  0.67199614  0.56506994  1
  C  C503  1  0.34925514  0.55356900  0.63785212  1
  O  O504  1  0.10279899  0.60675252  0.63633660  1
  Cu  Cu505  1  0.26611687  0.64696292  0.63734310  1
  C  C506  1  0.22728482  0.68619094  0.57221502  1
  C  C507  1  0.37504923  0.85963125  0.51919047  1
  O  O508  1  0.17072554  0.67863167  0.64304268  1
  H  H509  1  0.21512174  0.85273930  0.51317400  1
  H  H510  1  0.17211612  0.63031550  0.71467440  1
  H  H511  1  0.31543455  0.54966709  0.70206962  1
  Cu  Cu512  1  0.17595887  0.55832682  0.52221881  1
  C  C513  1  0.43643550  0.53049131  0.53887456  1
  C  C514  1  0.45642488  0.99567069  0.59431309  1
  C  C515  1  0.22605003  0.70633940  0.72876088  1
  C  C516  1  0.05580101  0.90066930  0.61639835  1
  H  H517  1  0.24088049  0.94169021  0.59121880  1
  C  C518  1  0.12920058  0.75173439  0.58327336  1
  N  N519  1  0.04219736  0.76580763  0.58656271  1
  N  N520  1  0.02567619  0.77700951  0.73331324  1
  N  N521  1  0.14146378  0.89574679  0.73958325  1
  N  N522  1  0.45070951  0.86895519  0.51858663  1
  C  C523  1  0.01731445  0.90654070  0.58606111  1
  O  O524  1  0.29372432  0.75965089  0.68852068  1
  C  C525  1  0.41894552  0.51875722  0.64372683  1
  C  C526  1  0.18147315  0.94999443  0.53010116  1
  C  C527  1  0.26601529  0.77432371  0.59031692  1
  C  C528  1  0.15741150  0.91253349  0.70853431  1
  O  O529  1  0.24180589  0.93182590  0.65296871  1
  C  C530  1  0.18632018  0.78907152  0.59259353  1
  Cu  Cu531  1  0.01713467  0.53485945  0.71590509  1
  O  O532  1  0.25005328  0.95999749  0.53455218  1
  H  H533  1  0.12963622  0.73619733  0.68818516  1
  H  H534  1  0.01483641  0.81827680  0.54730959  1
  H  H535  1  0.33061948  0.88884216  0.52922789  1
  H  H536  1  0.02280430  0.92765445  0.53161742  1
  C  C537  1  0.13863104  0.91317755  0.61830156  1
  O  O538  1  0.30527796  0.85987993  0.60912586  1
  H  H539  1  0.01892804  0.89595881  0.64103547  1
  O  O540  1  0.45947032  0.56938250  0.72337809  1
  Cu  Cu541  1  0.33803155  0.89336033  0.64787229  1
  C  C542  1  0.06202587  0.81798713  0.72270353  1
  C  C543  1  0.17407768  0.91456914  0.65130500  1
  C  C544  1  0.31602798  0.51415307  0.71815153  1
  Cu  Cu545  1  0.38042356  0.62964299  0.52102070  1
  C  C546  1  0.05423600  0.92146725  0.55563782  1
  H  H547  1  0.17028606  0.83054176  0.60006260  1
  C  C548  1  0.18031378  0.92814397  0.58938199  1
  O  O549  1  0.47623475  0.74101934  0.74685004  1
  C  C550  1  0.32511998  0.81431277  0.60222389  1
  H  H551  1  0.19438363  0.94851658  0.70856904  1
  C  C552  1  0.13499392  0.93178890  0.55999388  1
  H  H553  1  0.06693375  0.82064684  0.69431865  1
  O  O554  1  0.13143092  0.90028496  0.67940128  1
  O  O555  1  0.39835286  0.80318869  0.60141180  1
  H  H556  1  0.28614296  0.92638964  0.73215210  1
  H  H557  1  0.49096852  0.58919615  0.64141414  1
  H  H558  1  0.38082475  0.54813923  0.54901902  1
  C  C559  1  0.45414480  0.94940725  0.61822656  1
  O  O560  1  0.41041052  0.94658097  0.64329228  1
  C  C561  1  0.48981370  0.54743917  0.64488023  1
  C  C562  1  0.17983564  0.66208735  0.73300344  1
  C  C563  1  0.00843378  0.74406361  0.70772024  1
  C  C564  1  0.46043150  0.52070882  0.73344360  1
  C  C565  1  0.17285604  0.50548271  0.70268374  1
  O  O566  1  0.41644251  0.98091452  0.74183037  1
  C  C567  1  0.49712136  0.98724727  0.56502931  1
  O  O568  1  0.49460574  0.91143387  0.60795563  1
  Cu  Cu569  1  0.47342561  0.84686080  0.59019656  1
  C  C570  1  0.09330036  0.85408864  0.74676886  1
  O  O571  1  0.07885715  0.58214394  0.74227414  1
  C  C572  1  0.21801379  0.81105107  0.50596991  1
  C  C573  1  0.29023749  0.78324642  0.50446368  1
  N  N574  1  0.36660469  0.80940404  0.50652921  1
  C  C575  1  0.00086066  0.73058923  0.60636077  1
  H  H576  1  0.02997060  0.70091822  0.62357425  1
  H  H577  1  0.26626812  0.78149078  0.74492917  1
  Cu  Cu578  1  0.42712121  0.62200996  0.74975850  1
  C  C579  1  0.14651356  0.78470710  0.50099421  1
  C  C580  1  0.49180613  0.82786217  0.50416517  1
  H  H581  1  0.08748294  0.69700537  0.80712887  1
  C  C582  1  0.12397891  0.70292869  0.78566537  1
  O  O583  1  0.39810618  0.68577634  0.77292887  1
  C  C584  1  0.35841705  0.73174968  0.88807016  1
  C  C585  1  0.02920907  0.66796693  0.92801951  1
  H  H586  1  0.37032647  0.69733141  0.83024756  1
  C  C587  1  0.30856184  0.70876329  0.94848845  1
  N  N588  1  0.36390767  0.67549292  0.96498340  1
  C  C589  1  0.39447576  0.73717522  0.83215604  1
  O  O590  1  0.33155010  0.68899537  0.88436777  1
  C  C591  1  0.30809250  0.97174694  0.77913877  1
  H  H592  1  0.44059828  0.54927042  0.84773322  1
  N  N593  1  0.24659199  0.67216187  0.93933439  1
  C  C594  1  0.32246674  0.57280704  0.80182475  1
  O  O595  1  0.39418909  0.58517600  0.79090623  1
  O  O596  1  0.09887781  0.97413265  0.85701312  1
  C  C597  1  0.34295612  0.62463576  0.96062789  1
  C  C598  1  0.31113663  0.54479062  0.83543916  1
  C  C599  1  0.16859308  0.68886594  0.93228033  1
  C  C600  1  0.22810842  0.74710628  0.75050601  1
  C  C601  1  0.43018861  0.69172219  0.98592638  1
  C  C602  1  0.45088106  0.99873059  0.88387888  1
  C  C603  1  0.43386396  0.72843336  0.77241553  1
  O  O604  1  0.26277675  0.58327570  0.78789849  1
  C  C605  1  0.23550627  0.52815966  0.84411206  1
  C  C606  1  0.36291639  0.51606075  0.88896941  1
  C  C607  1  0.26974299  0.62194989  0.94416761  1
  C  C608  1  0.22090675  0.50174819  0.87443453  1
  C  C609  1  0.10713542  0.65248553  0.93523875  1
  H  H610  1  0.22587068  0.58992033  0.94023978  1
  H  H611  1  0.11926733  0.61280324  0.94488242  1
  C  C612  1  0.41138947  0.95104747  0.89703483  1
  C  C613  1  0.49154021  0.54953796  0.91335674  1
  H  H614  1  0.35255717  0.93948593  0.85152130  1
  O  O615  1  0.34188863  0.83866497  0.98658832  1
  C  C616  1  0.01523672  0.71909085  0.91806705  1
  C  C617  1  0.15564031  0.74043371  0.91727095  1
  C  C618  1  0.26491327  0.94003635  0.75647427  1
  N  N619  1  0.18029602  0.77998970  0.80743725  1
  H  H620  1  0.28161335  0.79567384  0.78397317  1
  C  C621  1  0.20013745  0.96928337  0.82006804  1
  C  C622  1  0.18819280  0.92477825  0.76614380  1
  C  C623  1  0.05951329  0.80877102  0.89904184  1
  H  H624  1  0.43805539  0.83385891  0.89181187  1
  N  N625  1  0.47114857  0.53952378  0.96691849  1
  H  H626  1  0.04200774  0.98477299  0.89527305  1
  H  H627  1  0.09416458  0.93019366  0.80188076  1
  C  C628  1  0.17725892  0.83709587  0.87055532  1
  C  C629  1  0.17597085  0.74475434  0.78112625  1
  O  O630  1  0.35119270  0.75129075  0.91837460  1
  H  H631  1  0.15833742  0.81275609  0.84758241  1
  C  C632  1  0.16354926  0.99218815  0.85119915  1
  C  C633  1  0.35588937  0.92430009  0.87691488  1
  H  H634  1  0.29653585  0.74677576  0.96259842  1
  C  C635  1  0.27437674  0.98628880  0.81057247  1
  C  C636  1  0.43517320  0.75925851  0.80366102  1
  C  C637  1  0.40213912  0.76502212  0.86143772  1
  C  C638  1  0.07796080  0.75565965  0.91234255  1
  H  H639  1  0.32632445  0.86543961  0.83130040  1
  N  N640  1  0.25053140  0.85714111  0.86427074  1
  H  H641  1  0.35241567  0.50096439  0.96197338  1
  C  C642  1  0.15632392  0.93808411  0.79790523  1
  C  C643  1  0.42136955  0.93538763  0.93040642  1
  C  C644  1  0.38223497  0.87261912  0.97467577  1
  C  C645  1  0.24493774  0.80793076  0.80637289  1
  C  C646  1  0.38493427  0.99184376  0.77054507  1
  C  C647  1  0.37183253  0.89388897  0.93968458  1
  O  O648  1  0.12930525  0.84647774  0.89495345  1
  H  H649  1  0.46277753  0.95404354  0.94684678  1
  H  H650  1  0.20320218  0.76729091  0.91332946  1
  H  H651  1  0.27450623  0.83395016  0.93006331  1
  C  C652  1  0.31246363  0.86743565  0.92080003  1
  C  C653  1  0.27082390  0.84199445  0.83221376  1
  C  C654  1  0.44153108  0.81223098  0.86656205  1
  H  H655  1  0.08546157  0.85139170  0.77361389  1
  C  C656  1  0.30523283  0.88403052  0.88774822  1
  C  C657  1  0.48101140  0.83014163  0.83778576  1
  C  C658  1  0.12766297  0.66457141  0.76022807  1
  C  C659  1  0.37865688  0.53737112  0.85631596  1
  H  H660  1  0.37866544  0.59451633  0.97332729  1
  C  C661  1  0.06871286  0.62082223  0.76436315  1
  O  O662  1  0.01660802  0.62134193  0.78439139  1
  C  C663  1  0.48042415  0.80453814  0.80556553  1
  C  C664  1  0.40525534  0.51846930  0.94996036  1
  N  N665  1  0.41835507  0.52446428  0.91621473  1
  O  O666  1  0.42919298  0.90260949  0.99280448  1
  H  H667  1  0.18583481  0.53423657  0.82536943  1
  H  H668  1  0.28850420  0.57380484  0.99910401  1
  C  C669  1  0.17101619  0.53150775  0.99370087  1
  C  C670  1  0.56165490  0.16252105  0.15832345  1
  C  C671  1  0.60075777  0.07813254  0.03742641  1
  O  O672  1  0.52231486  0.31669173  0.24721160  1
  H  H673  1  0.95454871  0.00633955  0.09798747  1
  C  C674  1  0.94157197  0.25207502  0.05893417  1
  C  C675  1  0.68135984  0.36162559  0.23774113  1
  H  H676  1  0.56718321  0.45785508  0.03535831  1
  N  N677  1  0.53589360  0.25011261  0.17765177  1
  Cu  Cu678  1  0.92701358  0.18478762  0.17437577  1
  Cu  Cu679  1  0.70711930  0.04216763  0.09295780  1
  O  O680  1  0.61726139  0.45057340  0.21875975  1
  O  O681  1  0.94176656  0.12417874  0.15323819  1
  O  O682  1  0.64852316  0.04712410  0.05202653  1
  H  H683  1  0.61103584  0.17710165  0.14375662  1
  O  O684  1  0.64180129  0.09015944  0.11818924  1
  O  O685  1  0.79937211  0.01227128  0.11359476  1
  C  C686  1  0.77996230  0.29371127  0.22897332  1
  C  C687  1  0.58869501  0.07120775  0.13605566  1
  C  C688  1  0.51739311  0.06427910  0.03969620  1
  O  O689  1  0.62792442  0.12068460  0.02553700  1
  H  H690  1  0.92067493  0.19223152  0.11201678  1
  H  H691  1  0.52850519  0.16219150  0.09570746  1
  C  C692  1  0.57492850  0.25725831  0.06479044  1
  C  C693  1  0.97798872  0.18372146  0.10101775  1
  C  C694  1  0.88834959  0.09825550  0.01035759  1
  C  C695  1  0.53824073  0.10888603  0.15607930  1
  C  C696  1  0.77682336  0.36696758  0.19101341  1
  O  O697  1  0.88429128  0.26022648  0.07643181  1
  Cu  Cu698  1  0.80493133  0.44990763  0.09399185  1
  O  O699  1  0.81252330  0.09546308  0.01822236  1
  C  C700  1  0.67032969  0.32210815  0.07161745  1
  O  O701  1  0.70110807  0.36898337  0.12114020  1
  H  H702  1  0.79837510  0.38166436  0.16602379  1
  C  C703  1  0.60368283  0.29645411  0.08597783  1
  C  C704  1  0.60718294  0.26916798  0.17178181  1
  C  C705  1  0.52879569  0.42847240  0.15027163  1
  H  H706  1  0.66188876  0.24615324  0.17232603  1
  O  O707  1  0.95532447  0.27557424  0.03102849  1
  H  H708  1  0.64137666  0.35357988  0.16017936  1
  O  O709  1  0.90421438  0.24922080  0.19144192  1
  N  N710  1  0.52040610  0.33745633  0.16960555  1
  H  H711  1  0.57914192  0.21099931  0.01819832  1
  O  O712  1  0.89388861  0.31375827  0.15453968  1
  C  C713  1  0.70506735  0.36746454  0.09098878  1
  O  O714  1  0.74445548  0.40238973  0.07286776  1
  O  O715  1  0.92128866  0.13896730  0.00818215  1
  O  O716  1  0.57254448  0.02352804  0.14000848  1
  H  H717  1  0.57955997  0.30789702  0.11176827  1
  C  C718  1  0.96397506  0.43618163  0.00080566  1
  C  C719  1  0.59744943  0.32257075  0.16635903  1
  C  C720  1  0.54758953  0.42202291  0.01988141  1
  C  C721  1  0.89372164  0.45502751  0.01581313  1
  H  H722  1  0.84583312  0.42702270  0.01969057  1
  O  O723  1  0.70739966  0.46860226  0.18022741  1
  C  C724  1  0.60623914  0.24119925  0.03323748  1
  H  H725  1  0.75443713  0.33528408  0.03182198  1
  H  H726  1  0.91671641  0.09596899  0.22905978  1
  C  C727  1  0.92832279  0.04506461  0.01011846  1
  C  C728  1  0.71278790  0.38633712  0.20929424  1
  H  H729  1  0.58282550  0.41957647  0.13615970  1
  C  C730  1  0.87534457  0.29377872  0.18041699  1
  C  C731  1  0.67513137  0.43762604  0.20282853  1
  C  C732  1  0.67250140  0.26991334  0.02181207  1
  C  C733  1  0.81084824  0.31906956  0.20153719  1
  C  C734  1  0.70214537  0.31273112  0.03989784  1
  C  C735  1  0.51589212  0.19522597  0.17913810  1
  O  O736  1  0.86872925  0.48566928  0.12198627  1
  H  H737  1  0.80301259  0.25649216  0.23444802  1
  C  C738  1  0.94120274  0.13506478  0.23492940  1
  C  C739  1  0.71697570  0.31432236  0.24950099  1
  O  O740  1  0.77808917  0.49617275  0.05702480  1
  C  C741  1  0.50303764  0.47892011  0.15355649  1
  C  C742  1  0.89634185  0.17556851  0.24908536  1
  O  O743  1  0.77482070  0.13543238  0.24661362  1
  Cu  Cu744  1  0.86775560  0.28601645  0.00210659  1
  C  C745  1  0.73998997  0.15906916  0.39514080  1
  H  H746  1  0.83162921  0.07298811  0.37359632  1
  H  H747  1  0.63420593  0.47845426  0.36785343  1
  O  O748  1  0.79637127  0.16966943  0.37526700  1
  O  O749  1  0.69011358  0.19529563  0.40284705  1
  O  O750  1  0.62039116  0.39291877  0.49058327  1
  O  O751  1  0.91092978  0.09287579  0.32013767  1
  O  O752  1  0.78381297  0.20688074  0.28517840  1
  C  C753  1  0.81201312  0.16856137  0.25940855  1
  H  H754  1  0.94451023  0.19923254  0.39806164  1
  C  C755  1  0.59260639  0.08117129  0.32198876  1
  O  O756  1  0.71213504  0.03375974  0.32333781  1
  O  O757  1  0.90489159  0.17797516  0.32615481  1
  H  H758  1  0.95029800  0.43566438  0.38064064  1
  C  C759  1  0.63514142  0.12339099  0.30890248  1
  H  H760  1  0.69753859  0.46884190  0.42990848  1
  N  N761  1  0.60861829  0.03183407  0.46608565  1
  C  C762  1  0.69218094  0.22620408  0.27851714  1
  C  C763  1  0.90435008  0.07860752  0.46422774  1
  H  H764  1  0.63496010  0.12714143  0.43731972  1
  Cu  Cu765  1  0.79449708  0.18493898  0.33072723  1
  C  C766  1  0.94481104  0.13297023  0.32390204  1
  C  C767  1  0.73296943  0.10350860  0.40396293  1
  C  C768  1  0.50685600  0.17247004  0.31796168  1
  C  C769  1  0.67209671  0.09535457  0.42801576  1
  C  C770  1  0.63723630  0.03103696  0.32989778  1
  C  C771  1  0.78452153  0.06425033  0.39250048  1
  C  C772  1  0.57171584  0.06169995  0.49238841  1
  H  H773  1  0.79674746  0.19693065  0.47815680  1
  N  N774  1  0.62674677  0.21798499  0.30323788  1
  C  C775  1  0.58826674  0.17080948  0.30727665  1
  C  C776  1  0.63872653  0.30560679  0.29875820  1
  H  H777  1  0.86538405  0.04833353  0.45295756  1
  Cu  Cu778  1  0.50324130  0.36829834  0.40769008  1
  C  C779  1  0.67100231  0.04520337  0.44305230  1
  H  H780  1  0.69447087  0.12010464  0.30006793  1
  H  H781  1  0.95606076  0.00381798  0.41749062  1
  C  C782  1  0.93546394  0.22173519  0.25897069  1
  O  O783  1  0.71257632  0.26278708  0.48447439  1
  N  N784  1  0.98187219  0.09187125  0.45491263  1
  C  C785  1  0.79957938  0.29584155  0.40530508  1
  H  H786  1  0.57661097  0.26277533  0.34147327  1
  H  H787  1  0.94838499  0.33901677  0.34882009  1
  C  C788  1  0.60716004  0.26419027  0.31694857  1
  C  C789  1  0.88957616  0.33281009  0.36077318  1
  H  H790  1  0.90605927  0.25470823  0.27125062  1
  O  O791  1  0.52251403  0.12055285  0.48379355  1
  C  C792  1  0.94019220  0.14629913  0.49508138  1
  C  C793  1  0.99927622  0.31707150  0.42047336  1
  C  C794  1  0.85002879  0.39377127  0.31613992  1
  C  C795  1  0.51270427  0.08140293  0.33293468  1
  C  C796  1  0.74554711  0.49298554  0.41994527  1
  N  N797  1  0.68415287  0.28232505  0.27511004  1
  C  C798  1  0.73636837  0.32126309  0.38769817  1
  C  C799  1  0.87279035  0.30354395  0.39008957  1
  H  H800  1  0.70117909  0.37625630  0.34839731  1
  O  O801  1  0.60254273  0.34393557  0.38553400  1
  O  O802  1  0.64032460  0.28868310  0.42634467  1
  O  O803  1  0.87928843  0.48853320  0.25917272  1
  C  C804  1  0.76571078  0.16973986  0.49594857  1
  H  H805  1  0.79255365  0.27540785  0.42877230  1
  C  C806  1  0.82825015  0.36163192  0.34665328  1
  C  C807  1  0.65617846  0.31836761  0.40185014  1
  C  C808  1  0.75114404  0.35277338  0.35910030  1
  N  N809  1  0.87835583  0.11340748  0.48697955  1
  O  O810  1  0.53040920  0.44231887  0.41192752  1
  O  O811  1  0.79551253  0.41885160  0.29949072  1
  H  H812  1  0.63049095  0.34857313  0.30387152  1
  O  O813  1  0.91878891  0.39172629  0.30810654  1
  H  H814  1  0.83158997  0.43548334  0.39581760  1
  Cu  Cu815  1  0.69586958  0.22943968  0.44394568  1
  H  H816  1  0.51691986  0.21658103  0.48197943  1
  H  H817  1  0.99460820  0.35899115  0.42521305  1
  C  C818  1  0.97672384  0.23384619  0.40558901  1
  H  H819  1  0.98610347  0.31394829  0.29031375  1
  C  C820  1  0.81183054  0.47680170  0.40240342  1
  C  C821  1  0.77859521  0.01453339  0.40631110  1
  H  H822  1  0.68138473  0.20744618  0.25372064  1
  C  C823  1  0.97471602  0.47459273  0.37310886  1
  N  N824  1  0.94701147  0.28375635  0.40593220  1
  C  C825  1  0.72717428  0.00595799  0.43355393  1
  O  O826  1  0.51404154  0.31302258  0.49599066  1
  Cu  Cu827  1  0.80530894  0.49277654  0.29282133  1
  H  H828  1  0.63484497  0.37987844  0.25292923  1
  C  C829  1  0.59445722  0.18265014  0.66898587  1
  H  H830  1  0.55527801  0.10438713  0.67033627  1
  H  H831  1  0.62754590  0.17237777  0.55980948  1
  C  C832  1  0.67569719  0.16974583  0.65678245  1
  C  C833  1  0.53871491  0.14415063  0.67494689  1
  O  O834  1  0.69541067  0.12265104  0.65092388  1
  C  C835  1  0.67437504  0.07010926  0.57233538  1
  O  O836  1  0.96644160  0.30831915  0.63114108  1
  Cu  Cu837  1  0.63835414  0.06016113  0.63766533  1
  C  C838  1  0.67222155  0.15599762  0.54259185  1
  O  O839  1  0.62056630  0.08245566  0.59464126  1
  C  C840  1  0.67672905  0.24145055  0.50844298  1
  C  C841  1  0.70410789  0.10645999  0.54501817  1
  O  O842  1  0.72443914  0.20777954  0.65357690  1
  Cu  Cu843  1  0.78091392  0.23581880  0.61781817  1
  C  C844  1  0.70146563  0.18724210  0.51619020  1
  O  O845  1  0.64408615  0.02723617  0.67829013  1
  C  C846  1  0.76878432  0.08635761  0.52723462  1
  C  C847  1  0.70389027  0.28567303  0.73710234  1
  O  O848  1  0.62495794  0.26653211  0.52574044  1
  H  H849  1  0.56106942  0.27017002  0.60496946  1
  O  O850  1  0.82422879  0.26640944  0.57743349  1
  H  H851  1  0.95550347  0.39828042  0.66084676  1
  C  C852  1  0.86578206  0.33968853  0.66669149  1
  H  H853  1  0.77206316  0.28260639  0.67699762  1
  N  N854  1  0.52419308  0.02215673  0.50809250  1
  C  C855  1  0.75365289  0.35711407  0.70291451  1
  C  C856  1  0.57787219  0.23620996  0.67229500  1
  C  C857  1  0.62426663  0.35784266  0.73843014  1
  H  H858  1  0.82954793  0.41855161  0.58574595  1
  O  O859  1  0.87121340  0.25278648  0.64481390  1
  C  C860  1  0.89575400  0.39057553  0.67082781  1
  C  C861  1  0.75681885  0.34643647  0.58289024  1
  C  C862  1  0.90290142  0.29779911  0.64624737  1
  H  H863  1  0.66623635  0.28628305  0.58252114  1
  C  C864  1  0.85177484  0.42355121  0.69068442  1
  H  H865  1  0.74682134  0.43394404  0.72421170  1
  N  N866  1  0.69360656  0.33551742  0.72600758  1
  C  C867  1  0.57342011  0.46905629  0.51688614  1
  H  H868  1  0.75813046  0.26245764  0.73388713  1
  O  O869  1  0.71002072  0.45030204  0.50864760  1
  H  H870  1  0.59532428  0.39571719  0.73071312  1
  C  C871  1  0.67763401  0.32915155  0.58255679  1
  C  C872  1  0.88032203  0.47794293  0.69987103  1
  C  C873  1  0.63099990  0.42171334  0.58670213  1
  H  H874  1  0.61896317  0.44257910  0.66163738  1
  N  N875  1  0.53353026  0.35017505  0.58814610  1
  O  O876  1  0.72654689  0.49915493  0.58451507  1
  C  C877  1  0.61623619  0.36611217  0.58427789  1
  H  H878  1  0.79724178  0.04833511  0.53270607  1
  C  C879  1  0.82940697  0.31525254  0.57676918  1
  H  H880  1  0.62059177  0.26698027  0.66606529  1
  H  H881  1  0.57901964  0.44979650  0.59031346  1
  C  C882  1  0.77009569  0.40126965  0.58523269  1
  O  O883  1  0.94926186  0.49151135  0.69316698  1
  C  C884  1  0.52383901  0.34776662  0.67649540  1
  C  C885  1  0.70971543  0.43572512  0.58516178  1
  C  C886  1  0.77894033  0.40963655  0.70694639  1
  C  C887  1  0.56251826  0.46336416  0.65696723  1
  C  C888  1  0.79264020  0.32377296  0.68021386  1
  H  H889  1  0.58094947  0.35106507  0.66355907  1
  O  O890  1  0.89627738  0.33816695  0.57466813  1
  O  O891  1  0.70754918  0.02849857  0.57380082  1
  H  H892  1  0.57899561  0.18011923  0.73342396  1
  C  C893  1  0.51510589  0.30030851  0.59957483  1
  Cu  Cu894  1  0.62239158  0.32810576  0.50964501  1
  C  C895  1  0.64243253  0.43846033  0.50549256  1
  O  O896  1  0.54495607  0.08642267  0.73905768  1
  Cu  Cu897  1  0.98304386  0.30239330  0.58406668  1
  C  C898  1  0.50307503  0.25028545  0.68500308  1
  H  H899  1  0.60571229  0.08711533  0.50958975  1
  C  C900  1  0.79854709  0.12107230  0.50256951  1
  H  H901  1  0.93312979  0.17749697  0.51501864  1
  N  N902  1  0.75316134  0.48616469  0.80517130  1
  C  C903  1  0.59728711  0.13878457  0.78197256  1
  C  C904  1  0.67929715  0.18120947  0.86341882  1
  C  C905  1  0.62775431  0.22833862  0.77741649  1
  C  C906  1  0.64921095  0.23122321  0.81191411  1
  H  H907  1  0.80694500  0.08364751  0.90204078  1
  C  C908  1  0.96803712  0.38009563  0.98933507  1
  Cu  Cu909  1  0.56865537  0.10462691  0.96391724  1
  O  O910  1  0.73670779  0.08225567  0.96010231  1
  H  H911  1  0.54291599  0.31846308  0.77628986  1
  C  C912  1  0.56964869  0.08672741  0.76890525  1
  O  O913  1  0.66681485  0.14485823  0.88162522  1
  C  C914  1  0.73160980  0.44813098  0.78299388  1
  C  C915  1  0.62363245  0.13522764  0.81584401  1
  C  C916  1  0.94059077  0.16354060  0.92555996  1
  C  C917  1  0.68865110  0.05189417  0.94588496  1
  O  O918  1  0.80459072  0.19038450  0.92837982  1
  H  H919  1  0.63021600  0.10128887  0.83352202  1
  O  O920  1  0.88572597  0.10200089  0.83979647  1
  O  O921  1  0.57185095  0.04680316  0.78691532  1
  C  C922  1  0.87577638  0.20340042  0.92987449  1
  H  H923  1  0.86028657  0.10082735  0.94023261  1
  C  C924  1  0.64778924  0.18344892  0.82792459  1
  C  C925  1  0.76903885  0.05114170  0.89167182  1
  C  C926  1  0.60082773  0.18230262  0.76099577  1
  C  C927  1  0.92191406  0.11213456  0.93194091  1
  C  C928  1  0.70814819  0.03124062  0.91253720  1
  O  O929  1  0.97857582  0.32792821  0.90075978  1
  C  C930  1  0.84797155  0.06228233  0.83483251  1
  C  C931  1  0.78172532  0.48721458  0.95171690  1
  C  C932  1  0.92062415  0.39478013  0.80857436  1
  O  O933  1  0.71533211  0.22289904  0.87568503  1
  C  C934  1  0.98173260  0.07277616  0.92763951  1
  N  N935  1  0.85056513  0.42888157  0.80216281  1
  H  H936  1  0.52347504  0.25325477  0.98633205  1
  H  H937  1  0.83472745  0.02939868  0.95090776  1
  Cu  Cu938  1  0.70657412  0.22693990  0.92199273  1
  C  C939  1  0.65806411  0.48182901  0.98334971  1
  O  O940  1  0.90133456  0.35651478  0.98940406  1
  O  O941  1  0.83467472  0.37637261  0.90381246  1
  C  C942  1  0.71516545  0.40606534  0.95428745  1
  N  N943  1  0.59184080  0.40236573  0.99212411  1
  O  O944  1  0.69200102  0.22468718  0.97014621  1
  C  C945  1  0.55439795  0.35750027  0.98129649  1
  H  H946  1  0.71156008  0.36474937  0.94539197  1
  O  O947  1  0.77330925  0.28899802  0.98005133  1
  O  O948  1  0.60624240  0.26943826  0.91738223  1
  C  C949  1  0.59102215  0.31886182  0.75716176  1
  O  O950  1  0.89886554  0.24840888  0.93573655  1
  N  N951  1  0.63970412  0.27380863  0.75532324  1
  O  O952  1  0.90134976  0.44923160  0.91350632  1
  H  H953  1  0.90672450  0.38695229  0.86211978  1
  Cu  Cu954  1  0.87346618  0.31555693  0.92062927  1
  Cu  Cu955  1  0.72535428  0.12468653  0.99962806  1
  C  C956  1  0.71369732  0.26099265  0.98906108  1
  C  C957  1  0.93785874  0.37266359  0.83935543  1
  H  H958  1  0.66690915  0.26905741  0.82572309  1
  O  O959  1  0.60386876  0.34094977  0.88622375  1
  O  O960  1  0.62269002  0.04153946  0.96025457  1
  C  C961  1  0.96469444  0.37813813  0.78040857  1
  C  C962  1  0.84220201  0.41955301  0.91803710  1
  H  H963  1  0.85268533  0.49115659  0.84170593  1
  H  H964  1  0.56933275  0.33229520  0.95992268  1
  C  C965  1  0.57447699  0.30008267  0.89488377  1
  N  N966  1  0.95371360  0.01849646  0.92856812  1
  C  C967  1  0.78296288  0.03656371  0.85840011  1
  C  C968  1  0.82082657  0.46941488  0.82091655  1
  C  C969  1  0.79686520  0.41446730  0.77835351  1
  C  C970  1  0.65476604  0.42714915  0.97438705  1
  C  C971  1  0.77835509  0.43553467  0.94163768  1
  O  O972  1  0.51582142  0.16468989  0.96910954  1
  H  H973  1  0.67632437  0.45441053  0.76767120  1
  O  O974  1  0.85702447  0.03296560  0.80935664  1
  H  H975  1  0.80502690  0.37852317  0.76077110  1
  C  C976  1  0.88016592  0.00387901  0.93991404  1
  H  H977  1  0.51472495  0.20347185  0.90175077  1
  H  H978  1  0.95458784  0.39301150  0.75494517  1
  O  O979  1  0.55071788  0.64907609  0.09389838  1
  C  C980  1  0.55004869  0.52291162  0.13573679  1
  O  O981  1  0.69060448  0.66761452  0.13062981  1
  O  O982  1  0.62597651  0.65011160  0.04792769  1
  O  O983  1  0.75726600  0.66345768  0.08282422  1
  C  C984  1  0.88720847  0.99949765  0.01961889  1
  C  C985  1  0.91484468  0.57194162  0.12703364  1
  C  C986  1  0.56593975  0.63415634  0.06430723  1
  Cu  Cu987  1  0.78058829  0.52482869  0.19197053  1
  C  C988  1  0.82494744  0.53030890  0.04532768  1
  C  C989  1  0.72066146  0.68898726  0.10577174  1
  C  C990  1  0.89422263  0.50778081  0.02643613  1
  Cu  Cu991  1  0.72415045  0.61796952  0.04695651  1
  O  O992  1  0.81841767  0.57830198  0.04901951  1
  H  H993  1  0.92903303  0.61978017  0.21820477  1
  C  C994  1  0.89939678  0.62626683  0.12827662  1
  C  C995  1  0.96302846  0.66083298  0.12305818  1
  Cu  Cu996  1  0.60329422  0.62733719  0.13501646  1
  C  C997  1  0.99127553  0.55465535  0.12018218  1
  H  H998  1  0.95536488  0.58166914  0.03106305  1
  O  O999  1  0.99876636  0.95195991  0.19322679  1
  H  H1000  1  0.83937394  0.64010921  0.13582757  1
  N  N1001  1  0.94182786  0.71676523  0.12351283  1
  O  O1002  1  0.57081472  0.65999174  0.17698506  1
  O  O1003  1  0.78879236  0.54043047  0.14722133  1
  C  C1004  1  0.85324150  0.53195012  0.13271117  1
  H  H1005  1  0.85495695  0.73628737  0.21087519  1
  O  O1006  1  0.65446775  0.92885072  0.02683958  1
  C  C1007  1  0.96012289  0.53968916  0.02318659  1
  C  C1008  1  0.88468052  0.94098713  0.11763842  1
  C  C1009  1  0.97089486  0.84903228  0.20192282  1
  O  O1010  1  0.67841602  0.83114155  0.19499722  1
  H  H1011  1  0.83191983  0.70002800  0.15062433  1
  H  H1012  1  0.53248199  0.59629286  0.21860828  1
  O  O1013  1  0.50886283  0.90137252  0.24124918  1
  O  O1014  1  0.55520719  0.82178545  0.23128607  1
  H  H1015  1  0.82498024  0.81036504  0.14960337  1
  C  C1016  1  0.87105816  0.73021130  0.13800254  1
  C  C1017  1  0.55687685  0.74856660  0.01070498  1
  H  H1018  1  0.79714247  0.74457831  0.05458018  1
  C  C1019  1  0.71556488  0.74521503  0.09724509  1
  C  C1020  1  0.86917187  0.78487658  0.13855252  1
  H  H1021  1  0.62455809  0.75187480  0.13646935  1
  C  C1022  1  0.95519235  0.96683041  0.10645356  1
  Cu  Cu1023  1  0.57411391  0.82158155  0.18660308  1
  O  O1024  1  0.68800086  0.58643958  0.00466210  1
  O  O1025  1  0.74655942  0.93592311  0.12985125  1
  H  H1026  1  0.78036588  0.89836650  0.19799031  1
  O  O1027  1  0.71717726  0.75077814  0.20755488  1
  C  C1028  1  0.98089930  0.59548960  0.22536535  1
  C  C1029  1  0.98278876  0.75950509  0.11584510  1
  H  H1030  1  0.69313126  0.89681680  0.08254221  1
  C  C1031  1  0.74620311  0.82065400  0.06552938  1
  C  C1032  1  0.65864048  0.77255866  0.11655552  1
  O  O1033  1  0.59097915  0.91175993  0.12214971  1
  C  C1034  1  0.73241624  0.79594553  0.20363153  1
  C  C1035  1  0.59385891  0.86367666  0.12635511  1
  C  C1036  1  0.97097956  0.54473472  0.23978658  1
  H  H1037  1  0.81033920  0.92718945  0.06164031  1
  O  O1038  1  0.88302001  0.96707007  0.22160845  1
  C  C1039  1  0.83024679  0.87096264  0.20173997  1
  C  C1040  1  0.80565042  0.96401006  0.12113992  1
  H  H1041  1  0.53954515  0.98501950  0.05581757  1
  C  C1042  1  0.69556567  0.85320987  0.08536375  1
  C  C1043  1  0.87338368  0.77863992  0.21024181  1
  C  C1044  1  0.81644001  0.81742451  0.20652732  1
  C  C1045  1  0.75706113  0.76695317  0.07055828  1
  O  O1046  1  0.82937735  0.54950532  0.22590907  1
  C  C1047  1  0.95346965  0.79570853  0.20734363  1
  C  C1048  1  0.93434128  0.95352529  0.01856027  1
  C  C1049  1  0.89020074  0.52683859  0.23907166  1
  C  C1050  1  0.64950536  0.82744401  0.10963008  1
  H  H1051  1  0.60503895  0.77306550  0.02220121  1
  N  N1052  1  0.89462586  0.90315718  0.02513863  1
  C  C1053  1  0.95879941  0.85841114  0.12157676  1
  H  H1054  1  0.92806963  0.68697379  0.22248887  1
  H  H1055  1  0.83084384  0.86799686  0.13450671  1
  N  N1056  1  0.80704717  0.84400209  0.04476707  1
  C  C1057  1  0.88671730  0.88715908  0.12664947  1
  O  O1058  1  0.54670751  0.84004006  0.14737161  1
  Cu  Cu1059  1  0.65014631  0.97074292  0.13490472  1
  C  C1060  1  0.92957878  0.93966192  0.20312393  1
  C  C1061  1  0.83193928  0.89565116  0.04660504  1
  O  O1062  1  0.51789519  0.82253007  0.06015950  1
  N  N1063  1  0.93964598  0.80263127  0.12502775  1
  C  C1064  1  0.90950865  0.88578663  0.20165699  1
  O  O1065  1  0.53488235  0.56990506  0.14587083  1
  C  C1066  1  0.51415609  0.68882766  0.18438005  1
  C  C1067  1  0.98654429  0.70198067  0.21689439  1
  H  H1068  1  0.82340116  0.99982142  0.02444735  1
  C  C1069  1  0.51096346  0.59503653  0.05064914  1
  O  O1070  1  0.57676438  0.86559872  0.00612991  1
  C  C1071  1  0.51903710  0.58571789  0.01538360  1
  O  O1072  1  0.59695737  0.51066142  0.11386946  1
  C  C1073  1  0.63876157  0.89777742  0.00528340  1
  H  H1074  1  0.85616261  0.77388895  0.01866672  1
  C  C1075  1  0.85889093  0.81846144  0.02374858  1
  C  C1076  1  0.50832549  0.85449843  0.24673038  1
  C  C1077  1  0.91043386  0.85595349  0.01106734  1
  C  C1078  1  0.73800399  0.61619566  0.46352229  1
  H  H1079  1  0.84017529  0.60393615  0.41081789  1
  C  C1080  1  0.69708538  0.58178938  0.44224122  1
  O  O1081  1  0.70221913  0.58201507  0.30423774  1
  Cu  Cu1082  1  0.92281527  0.90469390  0.43316478  1
  H  H1083  1  0.80400199  0.61779354  0.46539679  1
  O  O1084  1  0.60759063  0.99131009  0.34170549  1
  N  N1085  1  0.75302858  0.54595361  0.42427067  1
  C  C1086  1  0.82287165  0.56175348  0.41066784  1
  O  O1087  1  0.98822244  0.75293361  0.37006017  1
  C  C1088  1  0.59276355  0.51438419  0.36663555  1
  H  H1089  1  0.94338132  0.60873620  0.37205143  1
  C  C1090  1  0.61462036  0.55473873  0.34485999  1
  Cu  Cu1091  1  0.85956778  0.94113411  0.26459980  1
  O  O1092  1  0.86917175  0.89998887  0.47750869  1
  C  C1093  1  0.68850233  0.54719349  0.32487626  1
  C  C1094  1  0.56910514  0.59948778  0.33935198  1
  N  N1095  1  0.50658877  0.76567166  0.40864706  1
  H  H1096  1  0.58798360  0.62615529  0.31848988  1
  C  C1097  1  0.56943209  0.60680012  0.46210450  1
  C  C1098  1  0.61461420  0.57670824  0.43938908  1
  C  C1099  1  0.52710817  0.97637071  0.49124536  1
  N  N1100  1  0.86153663  0.51950009  0.39683220  1
  O  O1101  1  0.91033983  0.70810336  0.40437725  1
  H  H1102  1  0.77422647  0.72986772  0.40877830  1
  H  H1103  1  0.65932895  0.68440111  0.41458288  1
  C  C1104  1  0.61483027  0.71779181  0.40984103  1
  O  O1105  1  0.98506212  0.89050259  0.31340687  1
  H  H1106  1  0.90298340  0.82456388  0.33383520  1
  H  H1107  1  0.58369476  0.55384903  0.41991725  1
  O  O1108  1  0.86378760  0.97857721  0.36555653  1
  O  O1109  1  0.83547933  0.93002892  0.40917418  1
  C  C1110  1  0.91816484  0.74091574  0.38289862  1
  C  C1111  1  0.77669711  0.75914535  0.38808780  1
  H  H1112  1  0.54081413  0.70757052  0.33426964  1
  C  C1113  1  0.53549133  0.71818205  0.41976309  1
  O  O1114  1  0.73070038  0.50550466  0.32632444  1
  C  C1115  1  0.70645537  0.81847491  0.35047243  1
  C  C1116  1  0.69064063  0.64527167  0.48528457  1
  C  C1117  1  0.70679594  0.77836903  0.37508691  1
  C  C1118  1  0.77840123  0.83621957  0.33819926  1
  C  C1119  1  0.57664579  0.98369594  0.46271844  1
  C  C1120  1  0.77560458  0.88161913  0.31240201  1
  O  O1121  1  0.71583702  0.88574996  0.29555389  1
  O  O1122  1  0.97213511  0.95585354  0.27811237  1
  O  O1123  1  0.98752636  0.91715590  0.39387709  1
  O  O1124  1  0.73576023  0.91156863  0.48064917  1
  C  C1125  1  0.79599410  0.89188353  0.48877974  1
  C  C1126  1  0.85010063  0.81218464  0.34781082  1
  C  C1127  1  0.83106907  0.97433258  0.39406391  1
  H  H1128  1  0.64767841  0.83435630  0.34257192  1
  H  H1129  1  0.54882726  0.82819102  0.37729972  1
  H  H1130  1  0.73829913  0.96797952  0.44666335  1
  C  C1131  1  0.60878702  0.64240683  0.48383593  1
  O  O1132  1  0.83381205  0.91467222  0.30677698  1
  H  H1133  1  0.60751117  0.95441514  0.44684129  1
  C  C1134  1  0.56264415  0.79037159  0.38965687  1
  N  N1135  1  0.63031478  0.76268707  0.39125761  1
  C  C1136  1  0.84834278  0.77298632  0.37233979  1
  O  O1137  1  0.52780553  0.53524345  0.26562810  1
  Cu  Cu1138  1  0.92132880  0.92847598  0.34156778  1
  C  C1139  1  0.93670609  0.52375095  0.37927533  1
  Cu  Cu1140  1  0.77546338  0.97527760  0.31398021  1
  C  C1141  1  0.97052321  0.57041462  0.36836667  1
  C  C1142  1  0.51872679  0.52097379  0.38249568  1
  O  O1143  1  0.81316289  0.62031140  0.67175918  1
  Cu  Cu1144  1  0.78226770  0.55227855  0.68330212  1
  H  H1145  1  0.76798691  0.80776347  0.64109435  1
  C  C1146  1  0.51827927  0.55092024  0.53958328  1
  O  O1147  1  0.78229272  0.68295048  0.70946626  1
  O  O1148  1  0.63519955  0.59252782  0.65018659  1
  C  C1149  1  0.52776098  0.60509689  0.54771579  1
  H  H1150  1  0.73666247  0.97876660  0.64021396  1
  Cu  Cu1151  1  0.61395905  0.68764608  0.57051652  1
  C  C1152  1  0.92955935  0.72264373  0.70932146  1
  C  C1153  1  0.92123817  0.73931171  0.59781466  1
  C  C1154  1  0.91102487  0.68091981  0.68867738  1
  C  C1155  1  0.82987187  0.65928982  0.68918551  1
  C  C1156  1  0.85365390  0.82985998  0.52666557  1
  O  O1157  1  0.59899119  0.62166794  0.55468448  1
  C  C1158  1  0.63610492  0.54531678  0.65533762  1
  Cu  Cu1159  1  0.67477964  0.68554788  0.70444453  1
  C  C1160  1  0.78259965  0.85297278  0.51732877  1
  C  C1161  1  0.71997021  0.68748204  0.51024907  1
  H  H1162  1  0.57583644  0.66813578  0.50161197  1
  C  C1163  1  0.58162349  0.51754259  0.53181566  1
  H  H1164  1  0.86947530  0.71351869  0.59955880  1
  O  O1165  1  0.62280048  0.75195887  0.58830203  1
  O  O1166  1  0.55602288  0.97602613  0.70386571  1
  O  O1167  1  0.86255592  0.52145578  0.58326992  1
  H  H1168  1  0.76439671  0.75134877  0.58753772  1
  H  H1169  1  0.95987371  0.62278240  0.65459535  1
  H  H1170  1  0.89907220  0.96212320  0.54728102  1
  O  O1171  1  0.67006385  0.70734502  0.53033844  1
  O  O1172  1  0.59094948  0.78980338  0.70656609  1
  O  O1173  1  0.70502229  0.52263146  0.66204650  1
  H  H1174  1  0.88248741  0.74126088  0.72459245  1
  O  O1175  1  0.67912546  0.74750920  0.67654133  1
  C  C1176  1  0.67294452  0.84070739  0.67255210  1
  C  C1177  1  0.75146410  0.89285837  0.63726504  1
  H  H1178  1  0.65389475  0.87048679  0.52390395  1
  H  H1179  1  0.91149769  0.83832970  0.51312687  1
  C  C1180  1  0.62806096  0.79681753  0.57398531  1
  O  O1181  1  0.65282376  0.63384560  0.73513367  1
  C  C1182  1  0.77045232  0.78208993  0.56803667  1
  C  C1183  1  0.88678983  0.88873770  0.61599980  1
  C  C1184  1  0.84708111  0.79455847  0.55434753  1
  N  N1185  1  0.81102637  0.90183034  0.60936641  1
  H  H1186  1  0.52827771  0.94946512  0.55830995  1
  C  C1187  1  0.70562299  0.81068339  0.55805751  1
  C  C1188  1  0.65145376  0.93566105  0.66997401  1
  C  C1189  1  0.71606869  0.93970495  0.64753423  1
  C  C1190  1  0.73610460  0.84321313  0.64989913  1
  C  C1191  1  0.62744945  0.88619968  0.68034982  1
  C  C1192  1  0.70795638  0.84658424  0.53198209  1
  C  C1193  1  0.80299576  0.93309257  0.58205786  1
  H  H1194  1  0.75128237  0.95912407  0.57744794  1
  N  N1195  1  0.92928273  0.90901343  0.59034177  1
  C  C1196  1  0.88108639  0.93537962  0.56789116  1
  H  H1197  1  0.57363013  0.88024057  0.69518289  1
  C  C1198  1  0.61390397  0.98322713  0.68281436  1
  O  O1199  1  0.57214937  0.82501297  0.56512091  1
  C  C1200  1  0.64590441  0.78957467  0.68496878  1
  H  H1201  1  0.90813150  0.86457634  0.63716707  1
  H  H1202  1  0.64256637  0.53339048  0.53382547  1
  C  C1203  1  0.55825086  0.51862815  0.65163274  1
  C  C1204  1  0.97171922  0.65813272  0.66902418  1
  N  N1205  1  0.91575232  0.77743461  0.57293079  1
  O  O1206  1  0.78933545  0.69485532  0.51319824  1
  Cu  Cu1207  1  0.59267256  0.74121156  0.74045487  1
  C  C1208  1  0.79505350  0.51080560  0.58405949  1
  O  O1209  1  0.82811163  0.50810206  0.71140517  1
  C  C1210  1  0.99307145  0.79251599  0.56697809  1
  O  O1211  1  0.51852280  0.50185500  0.74519252  1
  H  H1212  1  0.55898873  0.82698496  0.50276029  1
  H  H1213  1  0.96874694  0.85609365  0.99585429  1
  O  O1214  1  0.66592470  0.70032571  0.93932758  1
  C  C1215  1  0.65356898  0.72332203  0.96830647  1
  O  O1216  1  0.88824740  0.64732216  0.92932237  1
  Cu  Cu1217  1  0.60841345  0.71739583  0.90049218  1
  O  O1218  1  0.59373266  0.64928941  0.89351465  1
  O  O1219  1  0.60590744  0.69181936  0.77374714  1
  C  C1220  1  0.64872598  0.61698767  0.88768203  1
  C  C1221  1  0.63744561  0.62691248  0.82657753  1
  C  C1222  1  0.65150205  0.61143044  0.79234723  1
  C  C1223  1  0.77519820  0.88390590  0.91400041  1
  C  C1224  1  0.70495491  0.53270604  0.81385020  1
  O  O1225  1  0.78523531  0.59002742  0.96729543  1
  C  C1226  1  0.66288334  0.59730162  0.85383599  1
  Cu  Cu1227  1  0.79108933  0.61953201  0.92381101  1
  C  C1228  1  0.69493721  0.54776267  0.84733472  1
  H  H1229  1  0.51585001  0.66009561  0.94871969  1
  H  H1230  1  0.51345619  0.81964709  0.78349605  1
  C  C1231  1  0.68849281  0.81012981  0.89622881  1
  H  H1232  1  0.60403563  0.66338371  0.82848513  1
  O  O1233  1  0.97531972  0.58522750  0.94266337  1
  C  C1234  1  0.63488644  0.64641885  0.76550959  1
  C  C1235  1  0.68499928  0.56208944  0.78511358  1
  O  O1236  1  0.68802659  0.59426452  0.91097122  1
  C  C1237  1  0.73255820  0.56589970  0.98258430  1
  C  C1238  1  0.56677677  0.71763763  0.98187533  1
  H  H1239  1  0.58498557  0.57280464  0.95168586  1
  O  O1240  1  0.70337166  0.75038819  0.98076659  1
  N  N1241  1  0.53509208  0.87522486  0.83550711  1
  H  H1242  1  0.93637050  0.89606520  0.90224305  1
  C  C1243  1  0.98712704  0.97663788  0.91159887  1
  C  C1244  1  0.54948772  0.90179105  0.80631840  1
  C  C1245  1  0.72147811  0.51007370  0.97195327  1
  C  C1246  1  0.67279312  0.97299437  0.86645436  1
  H  H1247  1  0.95392478  0.73218318  0.91671136  1
  C  C1248  1  0.70893749  0.85259048  0.92056486  1
  O  O1249  1  0.73464007  0.79842069  0.87497451  1
  C  C1250  1  0.75889326  0.92499419  0.96917219  1
  C  C1251  1  0.73550714  0.99505428  0.84632563  1
  C  C1252  1  0.93526035  0.93596856  0.91354663  1
  H  H1253  1  0.61809937  0.83053256  0.95516053  1
  C  C1254  1  0.80046121  0.91928504  0.93827649  1
  C  C1255  1  0.69027914  0.89537349  0.97390032  1
  H  H1256  1  0.77724571  0.95431721  0.98709066  1
  H  H1257  1  0.57770792  0.88255228  0.88924329  1
  C  C1258  1  0.60078399  0.94167425  0.81535330  1
  C  C1259  1  0.57497715  0.89698869  0.86219599  1
  N  N1260  1  0.61917220  0.93676209  0.84993527  1
  H  H1261  1  0.63429484  0.97009380  0.80000339  1
  N  N1262  1  0.86927119  0.95280265  0.93176745  1
  C  C1263  1  0.66445789  0.85866311  0.95020132  1
  H  H1264  1  0.61884722  0.97375143  0.91663068  1
  H  H1265  1  0.81189647  0.87696565  0.89011853  1
  H  H1266  1  0.51354573  0.56110010  0.88922182  1
  O  O1267  1  0.62039230  0.78756251  0.90276411  1
  C  C1268  1  0.66427167  0.98948919  0.89937578  1
  C  C1269  1  0.96236974  0.62846388  0.93310176  1
  C  C1270  1  0.52751419  0.55571535  0.94506114  1
  H  H1271  1  0.74907223  0.98451161  0.82071613  1
  H  H1272  1  0.83839585  0.50830558  0.94695449  1
  H  H1273  1  0.71260742  0.52401208  0.86856228  1
  H  H1274  1  0.52224917  0.89327589  0.78044941  1
  C  C1275  1  0.50759586  0.68444031  0.97140225  1
  H  H1276  1  0.55681277  0.60949596  0.99846216  1
  H  H1277  1  0.70049363  0.54973514  0.75923389  1
  O  O1278  1  0.99388601  0.82000792  0.89335170  1
  H  H1279  1  0.60832406  0.50212568  0.99772478  1
