# generated using pymatgen
data_Zn2H9C19(NO4)2
_symmetry_space_group_name_H-M   'P 1'
_cell_length_a   23.41812351
_cell_length_b   18.52920440
_cell_length_c   42.34580831
_cell_angle_alpha   90.00000000
_cell_angle_beta   90.00000000
_cell_angle_gamma   90.00000000
_symmetry_Int_Tables_number   1
_chemical_formula_structural   Zn2H9C19(NO4)2
_chemical_formula_sum   'Zn64 H288 C608 N64 O256'
_cell_volume   18374.65914010
_cell_formula_units_Z   32
loop_
 _symmetry_equiv_pos_site_id
 _symmetry_equiv_pos_as_xyz
  1  'x, y, z'
loop_
 _atom_site_type_symbol
 _atom_site_label
 _atom_site_symmetry_multiplicity
 _atom_site_fract_x
 _atom_site_fract_y
 _atom_site_fract_z
 _atom_site_occupancy
  N  N0  1  0.42493040  0.11511523  0.18575948  1
  N  N1  1  0.09305673  0.09224487  0.00845179  1
  Zn  Zn2  1  0.23608117  0.35052789  0.03747545  1
  C  C3  1  0.28331850  0.04713761  0.12733897  1
  O  O4  1  0.41595964  0.23746298  0.02602435  1
  O  O5  1  0.26481329  0.25422519  0.06012541  1
  C  C6  1  0.44769176  0.04236675  0.18126357  1
  H  H7  1  0.43956009  0.33918887  0.03642193  1
  H  H8  1  0.20547190  0.11296579  0.12711954  1
  O  O9  1  0.32571165  0.37798534  0.02798078  1
  N  N10  1  0.35996717  0.20082964  0.19415462  1
  H  H11  1  0.23292816  0.16412502  0.19261628  1
  O  O12  1  0.17920651  0.06835804  0.20879643  1
  O  O13  1  0.40289980  0.11867618  0.02608635  1
  N  N14  1  0.40986355  0.05890915  0.07651778  1
  C  C15  1  0.24864599  0.10405957  0.11790055  1
  N  N16  1  0.18449633  0.11778675  0.00495422  1
  O  O17  1  0.32835487  0.48246264  0.00384332  1
  C  C18  1  0.20574848  0.45097812  0.09446785  1
  O  O19  1  0.46323199  0.36750476  0.14006674  1
  Zn  Zn20  1  0.27085533  0.33233191  0.19147251  1
  C  C21  1  0.24158484  0.21318091  0.08044107  1
  H  H22  1  0.10481129  0.38647436  0.11556321  1
  H  H23  1  0.34254163  0.18023654  0.06303923  1
  C  C24  1  0.01759732  0.42810756  0.15072370  1
  C  C25  1  0.32615792  0.14156302  0.08196647  1
  C  C26  1  0.33999909  0.03366176  0.11587934  1
  C  C27  1  0.37254364  0.13092424  0.19813718  1
  C  C28  1  0.20149515  0.27504464  0.20244100  1
  C  C29  1  0.40681803  0.23214494  0.17888219  1
  C  C30  1  0.44789459  0.17922363  0.17590245  1
  Zn  Zn31  1  0.10060918  0.13230956  0.23193943  1
  H  H32  1  0.09435813  0.05297137  0.05677960  1
  C  C33  1  0.27511742  0.15180767  0.09583518  1
  C  C34  1  0.20996091  0.32825900  0.22872723  1
  N  N35  1  0.48993167  0.05460135  0.04655266  1
  C  C36  1  0.41446611  0.44795215  0.02458822  1
  C  C37  1  0.45483840  0.39765252  0.03511429  1
  C  C38  1  0.16831810  0.01536977  0.19028638  1
  C  C39  1  0.31764129  0.29867605  0.22970536  1
  C  C40  1  0.10537970  0.44596585  0.11930078  1
  H  H41  1  0.29948969  0.10173706  0.02771977  1
  H  H42  1  0.34831640  0.08887176  0.21090202  1
  C  C43  1  0.42203461  0.40477413  0.14632390  1
  O  O44  1  0.10565818  0.22065969  0.20501044  1
  O  O45  1  0.19574459  0.39585797  0.07582283  1
  C  C46  1  0.28802221  0.14372624  0.01042330  1
  C  C47  1  0.30718778  0.23582441  0.20539287  1
  C  C48  1  0.43872221  0.10212856  0.05239657  1
  C  C49  1  0.17440806  0.09283694  0.03425743  1
  O  O50  1  0.19161280  0.21821153  0.08823379  1
  H  H51  1  0.40320061  0.29020818  0.17107936  1
  C  C52  1  0.24536360  0.21941546  0.19643965  1
  C  C53  1  0.11621865  0.07524684  0.03630906  1
  C  C54  1  0.36120920  0.08387246  0.09207365  1
  C  C55  1  0.26953988  0.34348794  0.24090720  1
  O  O56  1  0.13009790  0.28634055  0.16467279  1
  C  C57  1  0.14261491  0.25781161  0.18988940  1
  Zn  Zn58  1  0.03327714  0.26458232  0.16531810  1
  H  H59  1  0.45886716  0.14925053  0.06583050  1
  H  H60  1  0.20529918  0.09100317  0.05415735  1
  O  O61  1  0.00737554  0.15411628  0.16334010  1
  O  O62  1  0.38169539  0.43949549  0.15223277  1
  C  C63  1  0.35123678  0.43167801  0.01853379  1
  O  O64  1  0.16960785  0.38081268  0.00347651  1
  O  O65  1  0.03816336  0.07684741  0.19971269  1
  O  O66  1  0.18167841  0.02013939  0.16286837  1
  C  C67  1  0.06631827  0.47603942  0.14012462  1
  O  O68  1  0.01241249  0.36596727  0.14002678  1
  C  C69  1  0.38644537  0.18995651  0.01849503  1
  H  H70  1  0.49187737  0.17532007  0.16350200  1
  H  H71  1  0.17433319  0.35856057  0.24064641  1
  H  H72  1  0.35933548  0.29945212  0.24295487  1
  C  C73  1  0.15647720  0.48467252  0.11404195  1
  O  O74  1  0.25017079  0.48294034  0.09368002  1
  C  C75  1  0.00166824  0.10073974  0.18169834  1
  C  C76  1  0.32854028  0.19669196  0.00183467  1
  C  C77  1  0.03433337  0.08756711  0.00101646  1
  H  H78  1  0.46425785  0.06817735  0.39595654  1
  C  C79  1  0.12429640  0.08357154  0.35679646  1
  C  C80  1  0.41944414  0.26559521  0.39026697  1
  O  O81  1  0.43715043  0.20197841  0.38506993  1
  C  C82  1  0.03973364  0.22656033  0.28542208  1
  C  C83  1  0.27715926  0.38173087  0.27124483  1
  C  C84  1  0.41364812  0.20841264  0.28547331  1
  C  C85  1  0.26510324  0.13821811  0.27176611  1
  H  H86  1  0.17611796  0.25346538  0.41363823  1
  O  O87  1  0.17377384  0.43847600  0.36938712  1
  O  O88  1  0.39447293  0.30191984  0.37044638  1
  H  H89  1  0.22982117  0.07670181  0.35664971  1
  C  C90  1  0.21272713  0.21724622  0.41957463  1
  C  C91  1  0.15495562  0.02288546  0.37371782  1
  O  O92  1  0.46098581  0.18177873  0.29297576  1
  O  O93  1  0.21784149  0.27160747  0.35922451  1
  H  H94  1  0.15233776  0.43621912  0.42386656  1
  Zn  Zn95  1  0.34627210  0.31210648  0.32720230  1
  Zn  Zn96  1  0.14261734  0.24781719  0.32819941  1
  C  C97  1  0.27431570  0.06520590  0.26554622  1
  H  H98  1  0.04417621  0.36082048  0.30908046  1
  H  H99  1  0.23736040  0.03042226  0.26416281  1
  C  C100  1  0.26075612  0.23690561  0.36676058  1
  O  O101  1  0.40290190  0.27166311  0.29293292  1
  H  H102  1  0.37863567  0.39155355  0.41920896  1
  C  C103  1  0.31206621  0.18404511  0.27888087  1
  C  C104  1  0.01980442  0.36102828  0.28547339  1
  C  C105  1  0.11326791  0.40369775  0.42061585  1
  O  O106  1  0.07131771  0.07512581  0.35506204  1
  C  C107  1  0.04511983  0.34386518  0.38536214  1
  C  C108  1  0.30441262  0.12981384  0.43787765  1
  O  O109  1  0.04500443  0.17319259  0.26916581  1
  C  C110  1  0.26562608  0.15014953  0.46138351  1
  C  C111  1  0.36743501  0.15591527  0.27618482  1
  C  C112  1  0.46788367  0.25671673  0.44275434  1
  C  C113  1  0.37795770  0.08283367  0.26911488  1
  C  C114  1  0.20516914  0.16739815  0.27493030  1
  O  O115  1  0.29845837  0.22064353  0.34686424  1
  N  N116  1  0.01025250  0.49150648  0.28069344  1
  C  C117  1  0.02566746  0.35323128  0.44276442  1
  C  C118  1  0.41354477  0.46757697  0.46851391  1
  H  H119  1  0.31873126  0.04565575  0.35037719  1
  C  C120  1  0.09364747  0.38504477  0.39019547  1
  H  H121  1  0.03755485  0.32758119  0.36077191  1
  H  H122  1  0.41759337  0.12072072  0.41925434  1
  C  C123  1  0.25917617  0.20264827  0.39983089  1
  H  H124  1  0.04790169  0.46613943  0.32686287  1
  O  O125  1  0.16477322  0.12406191  0.26905497  1
  C  C126  1  0.21814911  0.18877188  0.44961245  1
  O  O127  1  0.13513204  0.25308055  0.46903027  1
  O  O128  1  0.05745618  0.23105324  0.31363080  1
  C  C129  1  0.42997600  0.29395093  0.42329295  1
  O  O130  1  0.19456834  0.22916585  0.28276053  1
  H  H131  1  0.34114905  0.15146998  0.39004187  1
  C  C132  1  0.13291908  0.39747206  0.36301255  1
  H  H133  1  0.42004122  0.05903324  0.27120660  1
  H  H134  1  0.30466003  0.24190655  0.28632507  1
  C  C135  1  0.40921330  0.36153824  0.43247779  1
  O  O136  1  0.13545571  0.44303315  0.48766486  1
  Zn  Zn137  1  0.22944169  0.47023648  0.33193722  1
  C  C138  1  0.30659093  0.15993432  0.40768424  1
  O  O139  1  0.32336055  0.37144164  0.28468935  1
  O  O140  1  0.14975599  0.13628016  0.34529478  1
  C  C141  1  0.07726240  0.39169376  0.44590145  1
  C  C142  1  0.42799471  0.39080616  0.46045802  1
  O  O143  1  0.32365182  0.43735650  0.34284332  1
  Zn  Zn144  1  0.02355249  0.00903201  0.32234602  1
  O  O145  1  0.12678441  0.36968411  0.33652812  1
  O  O146  1  0.24106992  0.42366389  0.28269284  1
  H  H147  1  0.31090946  0.01957269  0.48511259  1
  C  C148  1  0.46692899  0.35603775  0.48112211  1
  C  C149  1  0.09347862  0.41077818  0.48060753  1
  N  N150  1  0.35215969  0.08315711  0.44977236  1
  H  H151  1  0.33483590  0.49858424  0.28954315  1
  C  C152  1  0.40395831  0.08368107  0.43681180  1
  C  C153  1  0.17106412  0.20249154  0.47346536  1
  Zn  Zn154  1  0.47972385  0.17533365  0.34214920  1
  O  O155  1  0.05527428  0.03039764  0.45288203  1
  C  C156  1  0.33110802  0.03927173  0.26424078  1
  H  H157  1  0.27131943  0.13690106  0.48694450  1
  O  O158  1  0.43721028  0.49875859  0.49027221  1
  N  N159  1  0.43998889  0.03570146  0.45255828  1
  H  H160  1  0.48333666  0.20307163  0.43566679  1
  C  C161  1  0.21391784  0.02988780  0.37183969  1
  C  C162  1  0.01447601  0.29406448  0.27033695  1
  C  C163  1  0.35194605  0.03035006  0.47299417  1
  C  C164  1  0.36785017  0.47214753  0.35061020  1
  C  C165  1  0.01133674  0.32915148  0.41179333  1
  C  C166  1  0.40509204  0.00025386  0.47429945  1
  C  C167  1  0.48786797  0.28900082  0.47130587  1
  O  O168  1  0.38213646  0.48041592  0.37822224  1
  C  C169  1  0.49632284  0.02585725  0.44123604  1
  C  C170  1  0.34095471  0.00082220  0.36309701  1
  O  O171  1  0.16789439  0.16264353  0.49731266  1
  C  C172  1  0.48561896  0.11440139  0.56956831  1
  Zn  Zn173  1  0.07765607  0.27010491  0.51053074  1
  C  C174  1  0.39682530  0.20241075  0.54905317  1
  O  O175  1  0.31970035  0.03758151  0.56448676  1
  H  H176  1  0.15856027  0.35169318  0.61098385  1
  C  C177  1  0.12932759  0.00483849  0.56360898  1
  C  C178  1  0.43717156  0.42791426  0.56195901  1
  H  H179  1  0.10465961  0.03223214  0.50241158  1
  C  C180  1  0.01920489  0.39386834  0.62397206  1
  O  O181  1  0.17439261  0.03345014  0.55075442  1
  H  H182  1  0.08950283  0.30338150  0.69870372  1
  C  C183  1  0.10608644  0.16380759  0.66873050  1
  Zn  Zn184  1  0.07369261  0.03336383  0.62521834  1
  H  H185  1  0.36063986  0.23899082  0.54274649  1
  C  C186  1  0.10324348  0.18819833  0.70353493  1
  N  N187  1  0.46012634  0.30904271  0.56002602  1
  C  C188  1  0.38776592  0.13094164  0.55590964  1
  O  O189  1  0.29065426  0.13344372  0.54059092  1
  O  O190  1  0.17898552  0.24827064  0.57132916  1
  Zn  Zn191  1  0.19972301  0.15101882  0.54492235  1
  C  C192  1  0.42473057  0.36272012  0.54749768  1
  H  H193  1  0.38757888  0.34888232  0.53225016  1
  H  H194  1  0.02338376  0.49354208  0.66983798  1
  C  C195  1  0.08777509  0.30161751  0.58889423  1
  C  C196  1  0.07782677  0.39976454  0.62773980  1
  C  C197  1  0.11420148  0.13131054  0.72404818  1
  C  C198  1  0.02950456  0.29019353  0.58782339  1
  O  O199  1  0.10847484  0.09775425  0.66269025  1
  C  C200  1  0.45104188  0.23201687  0.55598725  1
  H  H201  1  0.41984079  0.48283551  0.55831018  1
  O  O202  1  0.10566883  0.20893799  0.64767499  1
  H  H203  1  0.11646792  0.07312651  0.71542013  1
  C  C204  1  0.12555617  0.24950557  0.56965519  1
  C  C205  1  0.11099438  0.35238955  0.60954846  1
  H  H206  1  0.42810724  0.02843374  0.57320245  1
  C  C207  1  0.09695314  0.25808742  0.71515636  1
  O  O208  1  0.09736399  0.20983008  0.55118917  1
  C  C209  1  0.32936907  0.09826133  0.55249616  1
  N  N210  1  0.47889867  0.40886922  0.58374495  1
  C  C211  1  0.43178924  0.08524556  0.56645264  1
  O  O212  1  0.08440467  0.39695942  0.73872061  1
  N  N213  1  0.10059798  0.46006776  0.64714363  1
  H  H214  1  0.01084425  0.24941672  0.57122587  1
  C  C215  1  0.10419067  0.27576821  0.74695158  1
  O  O216  1  0.06302943  0.38171509  0.50257314  1
  H  H217  1  0.11869570  0.00371256  0.73944970  1
  C  C218  1  0.49764674  0.18778622  0.56493695  1
  C  C219  1  0.49614346  0.34013889  0.58120038  1
  O  O220  1  0.00381591  0.20986902  0.50041905  1
  C  C221  1  0.15727648  0.48447327  0.64906572  1
  H  H222  1  0.18826052  0.45710950  0.63209532  1
  H  H223  1  0.48361821  0.38125365  0.50281768  1
  H  H224  1  0.04126795  0.43835263  0.85998786  1
  C  C225  1  0.13845285  0.02931773  0.90302721  1
  O  O226  1  0.13967159  0.06058507  0.95486582  1
  H  H227  1  0.12612109  0.23669369  0.79339937  1
  H  H228  1  0.03729864  0.27149266  0.95155781  1
  C  C229  1  0.04344702  0.48135944  0.91847649  1
  C  C230  1  0.17464642  0.43580836  0.98664999  1
  C  C231  1  0.05711064  0.25405756  0.85982339  1
  C  C232  1  0.06958954  0.32684922  0.85769275  1
  O  O233  1  0.21305191  0.48193902  0.98928406  1
  C  C234  1  0.01970789  0.13029047  0.82429472  1
  C  C235  1  0.13163598  0.34687911  0.85618957  1
  H  H236  1  0.05111814  0.10847556  0.95156206  1
  N  N237  1  0.12998326  0.08867840  0.77587881  1
  C  C238  1  0.47757521  0.02296157  0.80414789  1
  O  O239  1  0.16744099  0.29639709  0.86051136  1
  H  H240  1  0.48631991  0.02230803  0.91925875  1
  C  C241  1  0.22739928  0.20622536  0.97092558  1
  Zn  Zn242  1  0.17249165  0.23394371  0.90262537  1
  C  C243  1  0.10036937  0.35353254  0.75822972  1
  O  O244  1  0.15122058  0.40945092  0.85211595  1
  H  H245  1  0.12843982  0.10325601  0.86307979  1
  H  H246  1  0.01895204  0.01736150  0.80347536  1
  C  C247  1  0.13192982  0.08766643  0.80803322  1
  H  H248  1  0.48178728  0.14952439  0.99526803  1
  C  C249  1  0.26318105  0.31934425  0.94299530  1
  H  H250  1  0.12943710  0.13230341  0.82540617  1
  C  C251  1  0.08132821  0.40955527  0.96189152  1
  H  H252  1  0.35796632  0.29093089  0.97300751  1
  C  C253  1  0.02817624  0.38174064  0.85882873  1
  H  H254  1  0.09123261  0.21181496  0.86124141  1
  C  C255  1  0.13525428  0.11389794  0.98461948  1
  C  C256  1  0.13463299  0.04831098  0.87142120  1
  C  C257  1  0.03977044  0.42194763  0.93862751  1
  C  C258  1  0.11583426  0.22170274  0.76927119  1
  H  H259  1  0.12651396  0.16834177  0.97291538  1
  C  C260  1  0.23493722  0.15156198  0.99455383  1
  C  C261  1  0.27096141  0.25556549  0.96434452  1
  O  O262  1  0.11364229  0.36656051  0.78718202  1
  H  H263  1  0.18734166  0.21385515  0.95709941  1
  H  H264  1  0.42901725  0.11009351  0.82712675  1
  O  O265  1  0.21875926  0.31755226  0.92703638  1
  C  C266  1  0.01819816  0.10247856  0.96921830  1
  O  O267  1  0.29979463  0.36785379  0.94035767  1
  C  C268  1  0.43576368  0.05182497  0.82480934  1
  C  C269  1  0.12886691  0.45354573  0.96211019  1
  H  H270  1  0.04291688  0.16753197  0.80792934  1
  O  O271  1  0.12405119  0.15182714  0.91967251  1
  O  O272  1  0.35634828  0.09864590  0.86804445  1
  C  C273  1  0.13289993  0.08560430  0.92670148  1
  C  C274  1  0.32472561  0.25248533  0.97980841  1
  C  C275  1  0.36071099  0.03614762  0.86144760  1
  Zn  Zn276  1  0.13879041  0.46746997  0.80863616  1
  H  H277  1  0.08021521  0.36802701  0.97911449  1
  C  C278  1  0.12653141  0.01907012  0.76373584  1
  C  C279  1  0.00964705  0.05717747  0.82181522  1
  H  H280  1  0.01367089  0.48612473  0.89845852  1
  N  N281  1  0.13731537  0.01763222  0.81597640  1
  O  O282  1  0.49675185  0.13683081  0.77803839  1
  Zn  Zn283  1  0.28775170  0.47667411  0.95896611  1
  O  O284  1  0.05238424  0.49928754  0.81823703  1
  C  C285  1  0.12294031  0.15125085  0.75623680  1
  C  C286  1  0.23223232  0.81196886  0.07438418  1
  O  O287  1  0.31971183  0.85975483  0.09190066  1
  O  O288  1  0.33279648  0.56065790  0.23582276  1
  Zn  Zn289  1  0.37602310  0.78553701  0.11183546  1
  O  O290  1  0.49055413  0.81239370  0.05531022  1
  C  C291  1  0.05411393  0.73392961  0.08778940  1
  C  C292  1  0.37868430  0.85895443  0.17110034  1
  C  C293  1  0.39523083  0.63249237  0.09456849  1
  C  C294  1  0.06931319  0.54695671  0.15157574  1
  H  H295  1  0.19491072  0.69180892  0.11534574  1
  O  O296  1  0.37531870  0.60354898  0.07040815  1
  C  C297  1  0.48579410  0.54159484  0.02875344  1
  C  C298  1  0.11638221  0.58531253  0.14032758  1
  H  H299  1  0.39976011  0.55966541  0.01324887  1
  H  H300  1  0.49137885  0.85066052  0.15834652  1
  H  H301  1  0.41789890  0.95530849  0.09803672  1
  C  C302  1  0.38252420  0.57626157  0.24248158  1
  C  C303  1  0.48205306  0.90448013  0.16747590  1
  H  H304  1  0.20430653  0.58697750  0.11909655  1
  C  C305  1  0.45922169  0.61699030  0.10621831  1
  C  C306  1  0.22418966  0.73176995  0.02923991  1
  O  O307  1  0.40423368  0.77777482  0.06257600  1
  H  H308  1  0.18084244  0.82541822  0.14700584  1
  H  H309  1  0.05601875  0.73066159  0.01101370  1
  O  O310  1  0.39717147  0.80056566  0.15965788  1
  C  C311  1  0.43069333  0.51962497  0.02047736  1
  C  C312  1  0.13716611  0.94770586  0.20354414  1
  C  C313  1  0.43960627  0.81997983  0.04824160  1
  C  C314  1  0.09748825  0.69681965  0.17141623  1
  C  C315  1  0.16576751  0.70632021  0.13503187  1
  H  H316  1  0.01992361  0.66692208  0.14449043  1
  C  C317  1  0.46375729  0.90628262  0.00568014  1
  O  O318  1  0.45922798  0.66494648  0.01632550  1
  Zn  Zn319  1  0.27350391  0.96147316  0.15810595  1
  C  C320  1  0.46685035  0.55622246  0.12542814  1
  O  O321  1  0.41270463  0.60604463  0.22193726  1
  H  H322  1  0.13891150  0.68862634  0.01603447  1
  C  C323  1  0.14117279  0.76311882  0.05690511  1
  C  C324  1  0.16505931  0.72345740  0.03149389  1
  N  N325  1  0.12823858  0.65810839  0.14963149  1
  C  C326  1  0.16335471  0.55529234  0.12272514  1
  H  H327  1  0.04868629  0.77766009  0.22657092  1
  C  C328  1  0.42435186  0.91598068  0.17407333  1
  H  H329  1  0.13564931  0.90788564  0.15650351  1
  Zn  Zn330  1  0.37187798  0.69208100  0.03353575  1
  N  N331  1  0.11450483  0.76703088  0.17134834  1
  H  H332  1  0.30428111  0.78021872  0.04962262  1
  O  O333  1  0.24228742  0.89734661  0.11448955  1
  H  H334  1  0.06624391  0.67566057  0.18831746  1
  C  C335  1  0.42105103  0.87215876  0.02225781  1
  O  O336  1  0.36322299  0.67024398  0.11062447  1
  N  N337  1  0.07889889  0.74517776  0.05941627  1
  O  O338  1  0.32746184  0.86939880  0.17732243  1
  C  C339  1  0.25743974  0.77069718  0.05184327  1
  H  H340  1  0.49581232  0.71255916  0.08403351  1
  C  C341  1  0.17221217  0.80828562  0.07698174  1
  H  H342  1  0.43084366  0.51805012  0.12985170  1
  C  C343  1  0.15657304  0.77258576  0.14893722  1
  C  C344  1  0.12368343  0.89642744  0.18086352  1
  C  C345  1  0.07374306  0.82451208  0.22115209  1
  H  H346  1  0.07612132  0.74226326  0.11144407  1
  C  C347  1  0.09998292  0.83022229  0.19091734  1
  C  C348  1  0.11635827  0.94077226  0.23422254  1
  H  H349  1  0.03750205  0.57227596  0.16742882  1
  C  C350  1  0.26623932  0.86008816  0.09541802  1
  H  H351  1  0.14680582  0.83531935  0.09592923  1
  H  H352  1  0.32860396  0.85882302  0.02042824  1
  C  C353  1  0.04049878  0.73086655  0.03579313  1
  H  H354  1  0.39873228  0.93524040  0.23016696  1
  H  H355  1  0.36434622  0.99831774  0.19172816  1
  O  O356  1  0.08411009  0.89726856  0.11876032  1
  H  H357  1  0.36663071  0.98586294  0.12358430  1
  C  C358  1  0.08219095  0.88224640  0.24149416  1
  C  C359  1  0.36627631  0.88573710  0.01001097  1
  C  C360  1  0.06366406  0.91168704  0.09425083  1
  C  C361  1  0.48859862  0.99599454  0.06478162  1
  C  C362  1  0.40721392  0.98494093  0.18415226  1
  C  C363  1  0.43640335  0.99555956  0.08050332  1
  C  C364  1  0.25556313  0.69641942  0.00271672  1
  O  O365  1  0.30854718  0.70508743  0.00012900  1
  C  C366  1  0.49633789  0.62195536  0.02570229  1
  O  O367  1  0.04302408  0.92319266  0.06954677  1
  C  C368  1  0.37201527  0.91191470  0.24958371  1
  H  H369  1  0.09673977  0.52899553  0.36388468  1
  O  O370  1  0.25817178  0.57738982  0.31315751  1
  C  C371  1  0.02343225  0.98528736  0.46248933  1
  O  O372  1  0.06387558  0.93021531  0.29264724  1
  H  H373  1  0.47122285  0.53036574  0.35659750  1
  H  H374  1  0.12531655  0.98275321  0.25135341  1
  C  C375  1  0.32249707  0.79974980  0.31442504  1
  O  O376  1  0.31055617  0.83358836  0.39884901  1
  O  O377  1  0.23524758  0.58543162  0.35966813  1
  Zn  Zn378  1  0.35278462  0.61533066  0.46630645  1
  O  O379  1  0.13167912  0.61469706  0.44326156  1
  C  C380  1  0.39737007  0.97608609  0.36518365  1
  C  C381  1  0.47776690  0.76306322  0.41493571  1
  H  H382  1  0.34140741  0.88994034  0.34447864  1
  C  C383  1  0.45492032  0.53880603  0.33345322  1
  C  C384  1  0.15711092  0.91490384  0.40352491  1
  H  H385  1  0.43625234  0.98872865  0.35049318  1
  C  C386  1  0.46135540  0.59533950  0.28116756  1
  C  C387  1  0.28229687  0.72965897  0.36585339  1
  O  O388  1  0.15755400  0.80055292  0.42598479  1
  C  C389  1  0.06926768  0.69732079  0.32874584  1
  C  C390  1  0.48520277  0.58054597  0.31125658  1
  C  C391  1  0.09979424  0.63099275  0.39046295  1
  C  C392  1  0.34058111  0.91008292  0.39871895  1
  Zn  Zn393  1  0.43081868  0.54543842  0.40757317  1
  O  O394  1  0.05782254  0.55548493  0.42785513  1
  N  N395  1  0.33214946  0.85298907  0.28899635  1
  C  C396  1  0.46597132  0.69656745  0.43479243  1
  C  C397  1  0.37257159  0.84791227  0.26603428  1
  C  C398  1  0.30590584  0.79905010  0.37083318  1
  C  C399  1  0.05116026  0.88225373  0.27349243  1
  C  C400  1  0.32382270  0.83479502  0.34321678  1
  C  C401  1  0.04119871  0.50545471  0.30769919  1
  C  C402  1  0.24619533  0.97445361  0.38609231  1
  H  H403  1  0.28032472  0.94409414  0.30576266  1
  C  C404  1  0.40055227  0.51460872  0.32603397  1
  C  C405  1  0.12745613  0.85038782  0.41790444  1
  Zn  Zn406  1  0.13600750  0.70375539  0.36008477  1
  C  C407  1  0.06544762  0.70142310  0.39015261  1
  N  N408  1  0.30565293  0.96251669  0.38167345  1
  H  H409  1  0.39532616  0.79971901  0.26153930  1
  O  O410  1  0.06607190  0.72988585  0.48775627  1
  C  C411  1  0.37349564  0.52474576  0.29661749  1
  H  H412  1  0.30001579  0.69569048  0.28859380  1
  C  C413  1  0.09924273  0.59270196  0.42104000  1
  H  H414  1  0.03668554  0.70731601  0.41099065  1
  Zn  Zn415  1  0.49960711  0.59166760  0.48804717  1
  C  C416  1  0.05133166  0.73392137  0.35822054  1
  C  C417  1  0.12365448  0.96858046  0.38828984  1
  H  H418  1  0.05073616  0.71624184  0.30549396  1
  C  C419  1  0.26031172  0.61481763  0.33772109  1
  Zn  Zn420  1  0.14171346  0.71827811  0.46252834  1
  C  C421  1  0.40694799  0.56627220  0.27609219  1
  C  C422  1  0.43166169  0.80385211  0.40387569  1
  N  N423  1  0.39663288  0.91965177  0.38453340  1
  H  H424  1  0.38793128  0.78683094  0.41108816  1
  C  C425  1  0.21630046  0.91898558  0.40300009  1
  H  H426  1  0.23899454  0.87985895  0.41796280  1
  C  C427  1  0.28320654  0.69267326  0.33661848  1
  C  C428  1  0.47580747  0.84379057  0.47237573  1
  H  H429  1  0.38497712  0.77428227  0.47111040  1
  O  O430  1  0.41916772  0.66066866  0.43080086  1
  H  H431  1  0.34671161  0.92958339  0.42402727  1
  O  O432  1  0.07311771  0.84514989  0.41917697  1
  C  C433  1  0.10340181  0.58998177  0.36175967  1
  C  C434  1  0.04260816  0.60402447  0.27569309  1
  C  C435  1  0.08624290  0.61536597  0.32938231  1
  C  C436  1  0.31085917  0.92085184  0.28844118  1
  C  C437  1  0.44347020  0.87056870  0.38878753  1
  N  N438  1  0.05725134  0.57722546  0.30560774  1
  H  H439  1  0.26010730  0.70086440  0.38558999  1
  H  H440  1  0.07736826  0.96559400  0.38846469  1
  C  C441  1  0.26928290  0.74034704  0.47842003  1
  C  C442  1  0.30418977  0.72725977  0.31055352  1
  O  O443  1  0.29486232  0.70004990  0.45885902  1
  H  H444  1  0.45256249  0.84124402  0.45012710  1
  N  N445  1  0.33666141  0.96026037  0.26579589  1
  H  H446  1  0.05698793  0.65760880  0.26606517  1
  O  O447  1  0.00995850  0.84210835  0.27807957  1
  H  H448  1  0.47904299  0.63364483  0.26262412  1
  O  O449  1  0.38234646  0.50821339  0.44986571  1
  H  H450  1  0.42445458  0.95366264  0.48579965  1
  C  C451  1  0.03097163  0.96276218  0.49701355  1
  C  C452  1  0.00945455  0.55172206  0.26131172  1
  O  O453  1  0.22052787  0.72463579  0.48712892  1
  C  C454  1  0.30290328  0.79936734  0.49391718  1
  C  C455  1  0.35975115  0.80738352  0.48847395  1
  C  C456  1  0.49930852  0.88553324  0.37779652  1
  C  C457  1  0.49327922  0.83048930  0.29790756  1
  O  O458  1  0.48809464  0.81737691  0.27356430  1
  C  C459  1  0.33822511  0.78558602  0.60389198  1
  H  H460  1  0.21328302  0.68331916  0.55183036  1
  H  H461  1  0.02435602  0.78957496  0.58610774  1
  C  C462  1  0.03901638  0.66094759  0.53375554  1
  C  C463  1  0.16113273  0.54080718  0.67078229  1
  O  O464  1  0.41885976  0.87562152  0.63336966  1
  C  C465  1  0.41780878  0.75007521  0.57092871  1
  Zn  Zn466  1  0.25126792  0.95771080  0.55253210  1
  C  C467  1  0.43818885  0.84053302  0.61211466  1
  H  H468  1  0.06161282  0.61073187  0.62178553  1
  O  O469  1  0.21920865  0.75092556  0.69051386  1
  H  H470  1  0.46480373  0.75475706  0.56500539  1
  C  C471  1  0.32646157  0.69503990  0.56198230  1
  H  H472  1  0.47809547  0.87483352  0.55063625  1
  C  C473  1  0.07449135  0.99498534  0.51465672  1
  C  C474  1  0.30726741  0.90377622  0.52966745  1
  N  N475  1  0.24729835  0.71397766  0.59625400  1
  N  N476  1  0.15717718  0.67580548  0.59181126  1
  C  C477  1  0.10127103  0.65854021  0.57865521  1
  O  O478  1  0.07917275  0.80844634  0.63033682  1
  H  H479  1  0.31998166  0.81154438  0.62548142  1
  Zn  Zn480  1  0.10801260  0.70171208  0.71656059  1
  H  H481  1  0.12468369  0.71640604  0.53359047  1
  H  H482  1  0.25010635  0.73575254  0.64700767  1
  C  C483  1  0.22378080  0.71554532  0.62652924  1
  C  C484  1  0.30484527  0.73406665  0.58619434  1
  C  C485  1  0.39471204  0.79465212  0.59545014  1
  C  C486  1  0.36611488  0.91170461  0.52657719  1
  C  C487  1  0.38562847  0.70384580  0.55356307  1
  C  C488  1  0.02610558  0.69735479  0.73612765  1
  C  C489  1  0.03025652  0.64872367  0.70906972  1
  H  H490  1  0.22795557  0.84051181  0.52182541  1
  O  O491  1  0.02465567  0.90332997  0.72325563  1
  C  C492  1  0.09154493  0.68092945  0.54682469  1
  C  C493  1  0.20587021  0.69265151  0.57624642  1
  C  C494  1  0.23834121  0.69500959  0.69748318  1
  C  C495  1  0.16939819  0.68894200  0.62351930  1
  H  H496  1  0.38698567  0.95818693  0.53851531  1
  O  O497  1  0.46012312  0.64338329  0.52588979  1
  O  O498  1  0.25791857  0.63851004  0.70421351  1
  N  N499  1  0.10542598  0.54878757  0.68038582  1
  C  C500  1  0.12760712  0.60011528  0.73162189  1
  C  C501  1  0.05642617  0.62399932  0.59683174  1
  C  C502  1  0.48998032  0.86367445  0.52547087  1
  C  C503  1  0.07378921  0.86571967  0.64128112  1
  C  C504  1  0.27351576  0.84852058  0.51494613  1
  H  H505  1  0.04797838  0.91654867  0.58433296  1
  O  O506  1  0.48992366  0.84962094  0.60379394  1
  C  C507  1  0.08453789  0.60237728  0.70191607  1
  C  C508  1  0.04246104  0.92674032  0.56018281  1
  H  H509  1  0.30150137  0.65278968  0.54843874  1
  C  C510  1  0.07970218  0.97635297  0.54602880  1
  C  C511  1  0.40784798  0.65228328  0.52848479  1
  H  H512  1  0.16042593  0.55751133  0.73427830  1
  H  H513  1  0.13616280  0.68164758  0.64342824  1
  O  O514  1  0.37148981  0.61263856  0.51527007  1
  O  O515  1  0.06850328  0.92473996  0.65340902  1
  H  H516  1  0.19842215  0.56999014  0.67867090  1
  H  H517  1  0.49607905  0.55729139  0.58746232  1
  C  C518  1  0.06897343  0.50138973  0.66543643  1
  N  N519  1  0.45212174  0.85603346  0.50179143  1
  C  C520  1  0.00860134  0.60287555  0.57977249  1
  C  C521  1  0.39002585  0.85890236  0.50664257  1
  O  O522  1  0.12940315  0.99406677  0.59255831  1
  C  C523  1  0.03071172  0.68416567  0.50091805  1
  O  O524  1  0.25495700  0.91222687  0.98895879  1
  Zn  Zn525  1  0.11639401  0.70245539  0.85534177  1
  C  C526  1  0.44512823  0.73411096  0.93691467  1
  C  C527  1  0.15114719  0.62572723  0.78967510  1
  O  O528  1  0.06123309  0.60222337  0.87731464  1
  H  H529  1  0.12870030  0.91395295  0.79413344  1
  C  C530  1  0.33468046  0.75629389  0.91429632  1
  O  O531  1  0.17522953  0.78470554  0.87274452  1
  O  O532  1  0.15950265  0.66967104  0.81110070  1
  H  H533  1  0.01735029  0.64839632  0.94160433  1
  H  H534  1  0.05647873  0.70756458  0.78591765  1
  C  C535  1  0.13468037  0.97402843  0.78886087  1
  C  C536  1  0.17878914  0.83032031  0.89493561  1
  O  O537  1  0.10463961  0.82518789  0.97288052  1
  O  O538  1  0.26530671  0.62338478  0.91376699  1
  H  H539  1  0.29070839  0.77391892  0.90888696  1
  H  H540  1  0.03439749  0.89577887  0.84894468  1
  O  O541  1  0.12026683  0.71209170  0.96286793  1
  C  C542  1  0.07079990  0.69746297  0.76189243  1
  C  C543  1  0.16484984  0.90663193  0.88770979  1
  O  O544  1  0.22769316  0.66348934  0.98136381  1
  C  C545  1  0.29618547  0.93224809  0.97095499  1
  C  C546  1  0.46105551  0.90047737  0.81846127  1
  O  O547  1  0.32016219  0.99299303  0.87193918  1
  H  H548  1  0.15516845  0.93506514  0.93603913  1
  C  C549  1  0.15905961  0.92264848  0.85562532  1
  H  H550  1  0.43161235  0.78812139  0.86127227  1
  C  C551  1  0.12139203  0.64580189  0.75978111  1
  H  H552  1  0.16890608  0.54976597  0.94662298  1
  Zn  Zn553  1  0.33132587  0.90377300  0.90080537  1
  O  O554  1  0.17041583  0.56206076  0.78779645  1
  C  C555  1  0.40771892  0.67547790  0.93499225  1
  C  C556  1  0.35113231  0.68633629  0.92557360  1
  H  H557  1  0.46287923  0.85134008  0.92769118  1
  O  O558  1  0.28535428  0.94809078  0.94286805  1
  O  O559  1  0.03876246  0.75206625  0.84149725  1
  C  C560  1  0.08708186  0.76274288  0.96774683  1
  C  C561  1  0.45548194  0.94439281  0.97702353  1
  C  C562  1  0.35746456  0.92587836  0.98298230  1
  C  C563  1  0.37650966  0.81333432  0.91448543  1
  H  H564  1  0.42561658  0.62406497  0.94321472  1
  C  C565  1  0.41604590  0.92594207  0.83801879  1
  C  C566  1  0.47773427  0.70711812  0.83070716  1
  H  H567  1  0.39385555  0.98686578  0.94189943  1
  C  C568  1  0.31342221  0.61978840  0.92583839  1
  H  H569  1  0.16732719  0.88645486  0.83639109  1
  C  C570  1  0.01041524  0.53448345  0.80621327  1
  C  C571  1  0.09702904  0.59278073  0.89990813  1
  C  C572  1  0.45887605  0.77359032  0.84108293  1
  O  O573  1  0.33087419  0.56388186  0.93970319  1
  O  O574  1  0.19376880  0.81262203  0.92199615  1
  O  O575  1  0.13972141  0.63244084  0.90114872  1
  Zn  Zn576  1  0.18876473  0.85959128  0.97349626  1
  C  C577  1  0.43176624  0.80703947  0.92568050  1
  Zn  Zn578  1  0.19562272  0.68526617  0.93472869  1
  H  H579  1  0.49363829  0.60411604  0.96483918  1
  C  C580  1  0.09037910  0.52673652  0.92104343  1
  C  C581  1  0.02158737  0.75531428  0.96484197  1
  C  C582  1  0.39982537  0.95920640  0.96540657  1
  C  C583  1  0.15109643  0.95641156  0.91105716  1
  H  H584  1  0.39096392  0.88738110  0.85114709  1
  H  H585  1  0.47458157  0.65607092  0.84334248  1
  C  C586  1  0.48807357  0.95137199  0.79890160  1
  N  N587  1  0.47446740  0.82363500  0.81826041  1
  C  C588  1  0.13395142  0.51334411  0.94204066  1
  C  C589  1  0.49779428  0.78787846  0.79409677  1
  C  C590  1  0.14282606  0.99468263  0.84855175  1
  H  H591  1  0.01490848  0.85454780  0.99100580  1
  C  C592  1  0.40640131  0.99885713  0.84046622  1
  C  C593  1  0.73537032  0.31165168  0.08952427  1
  C  C594  1  0.63673056  0.08738911  0.02628261  1
  H  H595  1  0.60464529  0.40249155  0.21602907  1
  C  C596  1  0.68420476  0.09341270  0.04864652  1
  O  O597  1  0.74969571  0.12755759  0.04120180  1
  O  O598  1  0.68255743  0.07685409  0.07742362  1
  C  C599  1  0.52566894  0.13650744  0.00321030  1
  C  C600  1  0.58639009  0.04342914  0.03054603  1
  H  H601  1  0.94684240  0.46037014  0.22835866  1
  O  O602  1  0.80243730  0.12603010  0.12850623  1
  C  C603  1  0.79772129  0.38421772  0.12229374  1
  O  O604  1  0.72571823  0.44950157  0.03717893  1
  N  N605  1  0.63765827  0.34952664  0.07912861  1
  C  C606  1  0.78696007  0.32548188  0.10301652  1
  H  H607  1  0.84038634  0.39377572  0.13189791  1
  C  C608  1  0.69020799  0.35972897  0.09644914  1
  H  H609  1  0.98344074  0.23017377  0.23155636  1
  O  O610  1  0.83763046  0.03870321  0.01790855  1
  N  N611  1  0.54685872  0.48259836  0.15332733  1
  C  C612  1  0.61123342  0.28751674  0.06794896  1
  H  H613  1  0.63139514  0.23669800  0.07295017  1
  C  C614  1  0.58957381  0.30446182  0.16631919  1
  Zn  Zn615  1  0.80353387  0.12425155  0.07644204  1
  H  H616  1  0.73357403  0.26775411  0.07150868  1
  C  C617  1  0.83809745  0.28204846  0.09109168  1
  O  O618  1  0.74757756  0.04569916  0.15143063  1
  N  N619  1  0.55699289  0.37743476  0.05429902  1
  C  C620  1  0.53895480  0.14936097  0.11659528  1
  C  C621  1  0.55964899  0.30444086  0.05447720  1
  O  O622  1  0.89268805  0.37364128  0.18716202  1
  C  C623  1  0.88222434  0.05643322  0.03190348  1
  C  C624  1  0.57019545  0.19416020  0.14075088  1
  H  H625  1  0.66014318  0.45335390  0.12705808  1
  H  H626  1  0.66128425  0.30350345  0.20106254  1
  C  C627  1  0.58625160  0.42437815  0.19366862  1
  C  C628  1  0.94635213  0.06117146  0.18037282  1
  C  C629  1  0.63451248  0.19755327  0.18434042  1
  Zn  Zn630  1  0.62069007  0.02867223  0.10515010  1
  C  C631  1  0.84583076  0.04970532  0.16603406  1
  O  O632  1  0.54598925  0.08027919  0.11356087  1
  O  O633  1  0.94320687  0.27135337  0.18384363  1
  O  O634  1  0.83361617  0.23427177  0.07095183  1
  H  H635  1  0.53853554  0.06964154  0.17150977  1
  H  H636  1  0.60592962  0.09494419  0.16130755  1
  O  O637  1  0.50545462  0.17938084  0.09936475  1
  C  C638  1  0.60400156  0.15589129  0.16216188  1
  C  C639  1  0.93668440  0.06560270  0.01255574  1
  O  O640  1  0.66605493  0.08358704  0.20940369  1
  C  C641  1  0.60328634  0.40437598  0.07074647  1
  O  O642  1  0.88658960  0.30204647  0.09984429  1
  H  H643  1  0.99606356  0.07939049  0.05011878  1
  O  O644  1  0.98496248  0.45114336  0.17099363  1
  O  O645  1  0.88351957  0.06624910  0.06121604  1
  C  C646  1  0.69629803  0.41773825  0.11822454  1
  C  C647  1  0.63268004  0.27242112  0.18562263  1
  C  C648  1  0.75068829  0.42851244  0.12850471  1
  C  C649  1  0.89771008  0.08666427  0.16462266  1
  C  C650  1  0.53190640  0.08109227  0.02708579  1
  C  C651  1  0.79476050  0.07349356  0.14710965  1
  C  C652  1  0.63013931  0.14964141  0.00413567  1
  H  H653  1  0.89722791  0.13746720  0.15160693  1
  C  C654  1  0.96401914  0.41115383  0.24153662  1
  C  C655  1  0.92849769  0.32745664  0.19764289  1
  C  C656  1  0.66903361  0.15159651  0.20741303  1
  C  C657  1  0.55905887  0.26677213  0.14266652  1
  C  C658  1  0.96159910  0.34371036  0.22704445  1
  N  N659  1  0.57507302  0.38016008  0.16949604  1
  C  C660  1  0.51110204  0.42100383  0.04084895  1
  H  H661  1  0.61516404  0.46278625  0.07599960  1
  C  C662  1  0.50407406  0.03012770  0.17209964  1
  O  O663  1  0.70120028  0.18870544  0.22215988  1
  C  C664  1  0.54368622  0.41157945  0.14448359  1
  H  H665  1  0.52918609  0.26952362  0.04214543  1
  H  H666  1  0.52881669  0.29102008  0.12631287  1
  C  C667  1  0.52877812  0.49373332  0.03877395  1
  H  H668  1  0.53875667  0.38788266  0.12019020  1
  Zn  Zn669  1  0.89494249  0.48136361  0.17507870  1
  C  C670  1  0.56582183  0.49080061  0.18363714  1
  C  C671  1  0.99090408  0.07558381  0.02436354  1
  H  H672  1  0.66909246  0.18259950  0.00144530  1
  C  C673  1  0.76354779  0.49246263  0.14873772  1
  C  C674  1  0.98849889  0.28391353  0.24175870  1
  H  H675  1  0.94239859  0.16379818  0.28836452  1
  C  C676  1  0.78163623  0.11584671  0.30029898  1
  C  C677  1  0.85903410  0.19866251  0.30634615  1
  H  H678  1  0.62339590  0.42458393  0.46942823  1
  C  C679  1  0.76186504  0.43832863  0.43262683  1
  C  C680  1  0.79937789  0.18485582  0.30862283  1
  H  H681  1  0.77093572  0.22550530  0.31780049  1
  H  H682  1  0.70809310  0.38430559  0.47478710  1
  H  H683  1  0.84493907  0.28185037  0.36352725  1
  C  C684  1  0.86207888  0.30806672  0.34129237  1
  O  O685  1  0.70096972  0.27039707  0.36658240  1
  C  C686  1  0.82666833  0.01468220  0.36739369  1
  N  N687  1  0.87248293  0.27505933  0.31365630  1
  N  N688  1  0.95908760  0.28773481  0.41016456  1
  O  O689  1  0.71397265  0.35494791  0.32574758  1
  C  C690  1  0.55721082  0.28581511  0.36049004  1
  C  C691  1  0.89214375  0.32761288  0.29330638  1
  O  O692  1  0.68597655  0.15210078  0.30951944  1
  C  C693  1  0.81469298  0.29273892  0.49039446  1
  C  C694  1  0.90252192  0.46407794  0.48435369  1
  O  O695  1  0.59966383  0.05587549  0.34313280  1
  C  C696  1  0.62486346  0.32249886  0.44069762  1
  C  C697  1  0.55289010  0.05061869  0.35874575  1
  H  H698  1  0.79231405  0.35994976  0.38448418  1
  C  C699  1  0.95299745  0.22118055  0.39754719  1
  C  C700  1  0.71868993  0.10106721  0.30353004  1
  H  H701  1  0.60299694  0.22422213  0.41169845  1
  C  C702  1  0.82150050  0.06295315  0.29152003  1
  O  O703  1  0.50620423  0.06584449  0.34588133  1
  N  N704  1  0.89677453  0.20768661  0.40011800  1
  O  O705  1  0.53308964  0.31794197  0.34077143  1
  C  C706  1  0.85582847  0.43381810  0.36177507  1
  C  C707  1  0.54756573  0.17855947  0.48864724  1
  C  C708  1  0.87367161  0.14039766  0.38904835  1
  O  O709  1  0.74145619  0.47853810  0.45253472  1
  O  O710  1  0.95398476  0.48069584  0.48034307  1
  H  H711  1  0.95538147  0.09263444  0.38209998  1
  C  C712  1  0.90849787  0.31371159  0.42265416  1
  N  N713  1  0.53446937  0.25237894  0.48855263  1
  C  C714  1  0.61275170  0.39548779  0.44787621  1
  C  C715  1  0.57119446  0.32370154  0.39187561  1
  C  C716  1  0.86806950  0.26341984  0.41652342  1
  C  C717  1  0.81214235  0.13332220  0.38806919  1
  C  C718  1  0.55492475  0.39422059  0.39924117  1
  C  C719  1  0.91062420  0.08565918  0.37953845  1
  O  O720  1  0.69322095  0.10446452  0.38623477  1
  C  C721  1  0.81560944  0.41207708  0.38450431  1
  C  C722  1  0.72735055  0.05475805  0.38034717  1
  C  C723  1  0.88876125  0.39513029  0.30735654  1
  C  C724  1  0.88905441  0.38548550  0.49019442  1
  C  C725  1  0.73486360  0.21436314  0.47697675  1
  H  H726  1  0.98892517  0.19204414  0.38591783  1
  C  C727  1  0.89865633  0.15028354  0.29326140  1
  C  C728  1  0.87874283  0.08140396  0.28846965  1
  H  H729  1  0.78261669  0.17476195  0.39648996  1
  C  C730  1  0.60074646  0.28339518  0.41457913  1
  C  C731  1  0.50055444  0.04388846  0.40898020  1
  C  C732  1  0.57415386  0.42732864  0.42672566  1
  N  N733  1  0.76024772  0.28028283  0.47852938  1
  H  H734  1  0.90579152  0.36553943  0.43491671  1
  H  H735  1  0.65109001  0.17889387  0.45793088  1
  C  C736  1  0.72261892  0.33185459  0.46302536  1
  N  N737  1  0.67155893  0.29000763  0.45625249  1
  N  N738  1  0.86839200  0.38191410  0.33690657  1
  H  H739  1  0.79731800  0.40849058  0.48415422  1
  C  C740  1  0.78978417  0.06785807  0.37883370  1
  O  O741  1  0.75530806  0.36758543  0.43305885  1
  H  H742  1  0.82223956  0.26602058  0.42381016  1
  H  H743  1  0.89891953  0.45171937  0.29919177  1
  O  O744  1  0.56624030  0.21500913  0.35672629  1
  C  C745  1  0.68209918  0.22019574  0.46281581  1
  Zn  Zn746  1  0.64324721  0.16812773  0.35482104  1
  C  C747  1  0.83020214  0.36736630  0.48942917  1
  C  C748  1  0.80411443  0.46295261  0.40912733  1
  H  H749  1  0.75847502  0.17153436  0.49021618  1
  C  C750  1  0.55168856  0.03456385  0.39271200  1
  H  H751  1  0.52642176  0.41559738  0.38108932  1
  O  O752  1  0.96939301  0.03289916  0.28318679  1
  H  H753  1  0.90330997  0.31589479  0.26740690  1
  C  C754  1  0.70635515  0.31484763  0.34616365  1
  C  C755  1  0.88629782  0.02194489  0.36754922  1
  C  C756  1  0.91720724  0.01917381  0.28247631  1
  C  C757  1  0.54592146  0.49513775  0.43362410  1
  H  H758  1  0.51958298  0.13808886  0.47423228  1
  C  C759  1  0.99518674  0.41986799  0.27006876  1
  H  H760  1  0.99682953  0.34390778  0.46266155  1
  O  O761  1  0.70512197  0.03871026  0.29742127  1
  H  H762  1  0.80701762  0.00784279  0.28757931  1
  C  C763  1  0.93198128  0.33869257  0.49789608  1
  O  O764  1  0.94687669  0.16067491  0.53363394  1
  N  N765  1  0.92003470  0.19724716  0.74233234  1
  C  C766  1  0.68862490  0.20202118  0.55573716  1
  H  H767  1  0.60981794  0.11600489  0.51915520  1
  C  C768  1  0.51003872  0.45122622  0.60794825  1
  O  O769  1  0.77343326  0.44854679  0.61896591  1
  N  N770  1  0.78723799  0.21673456  0.68689099  1
  O  O771  1  0.74852569  0.11116822  0.58665398  1
  C  C772  1  0.79964904  0.11152119  0.66196898  1
  C  C773  1  0.65563552  0.25461973  0.54021469  1
  H  H774  1  0.96283085  0.27629930  0.71411476  1
  H  H775  1  0.84935480  0.40377065  0.73069057  1
  C  C776  1  0.74230561  0.22540381  0.56573624  1
  H  H777  1  0.64857965  0.36816455  0.52646586  1
  C  C778  1  0.77522725  0.16635058  0.58477701  1
  C  C779  1  0.96025608  0.08409554  0.67118501  1
  H  H780  1  0.53115146  0.35308358  0.63420582  1
  H  H781  1  0.74271333  0.16582547  0.72751018  1
  O  O782  1  0.91293015  0.29537452  0.58052826  1
  C  C783  1  0.53523332  0.06375863  0.57998251  1
  C  C784  1  0.77994984  0.34319368  0.66566755  1
  C  C785  1  0.72839254  0.34753145  0.54844138  1
  H  H786  1  0.92634569  0.19219370  0.68016709  1
  H  H787  1  0.54041365  0.20410014  0.56816848  1
  H  H788  1  0.78193963  0.32944821  0.63984640  1
  C  C789  1  0.59968283  0.41268991  0.68396781  1
  C  C790  1  0.76442991  0.41247880  0.67294546  1
  H  H791  1  0.80802794  0.30476825  0.56838784  1
  C  C792  1  0.94072757  0.14162385  0.68974701  1
  H  H793  1  0.67528440  0.14807192  0.55696743  1
  C  C794  1  0.74853186  0.02813564  0.70015507  1
  O  O795  1  0.90198053  0.38051536  0.61572933  1
  C  C796  1  0.85708063  0.24152366  0.50071518  1
  H  H797  1  0.56722947  0.34215408  0.51746606  1
  O  O798  1  0.61302416  0.35026276  0.68817333  1
  O  O799  1  0.72953556  0.46449647  0.52854260  1
  O  O800  1  0.58460055  0.08122600  0.57844230  1
  C  C801  1  0.78264655  0.29325158  0.69197579  1
  O  O802  1  0.82451018  0.17876677  0.59492478  1
  C  C803  1  0.75703694  0.41844850  0.54384892  1
  C  C804  1  0.75234816  0.44189914  0.70295072  1
  O  O805  1  0.80800427  0.43049553  0.55148842  1
  C  C806  1  0.67502639  0.32642636  0.53731899  1
  C  C807  1  0.76488752  0.16325047  0.70497165  1
  C  C808  1  0.77498234  0.32160526  0.72338479  1
  C  C809  1  0.81126823  0.18339949  0.66019877  1
  C  C810  1  0.75644254  0.46603135  0.64586629  1
  H  H811  1  0.85127802  0.18329807  0.50615979  1
  C  C812  1  0.93286771  0.33804549  0.60146719  1
  C  C813  1  0.76383469  0.29214978  0.56174329  1
  C  C814  1  0.93389504  0.13237906  0.72266485  1
  O  O815  1  0.61097900  0.45393478  0.70638013  1
  Zn  Zn816  1  0.90547808  0.17736806  0.57863516  1
  C  C817  1  0.97592677  0.01899025  0.68670766  1
  C  C818  1  0.53452850  0.41272502  0.63379838  1
  N  N819  1  0.60529555  0.23650566  0.52263462  1
  C  C820  1  0.96380855  0.09277185  0.63569726  1
  H  H821  1  0.83643827  0.21560621  0.64210456  1
  Zn  Zn822  1  0.85131752  0.46399774  0.59289535  1
  C  C823  1  0.95792081  0.20907182  0.51496903  1
  C  C824  1  0.76062969  0.39300181  0.72764702  1
  C  C825  1  0.56542995  0.45048960  0.65829164  1
  C  C826  1  0.89270996  0.42763385  0.73565082  1
  C  C827  1  0.94787594  0.06947332  0.73873358  1
  C  C828  1  0.93497363  0.26325216  0.73438279  1
  Zn  Zn829  1  0.98023586  0.45825147  0.73271333  1
  N  N830  1  0.76994547  0.09763855  0.69006505  1
  H  H831  1  0.77969070  0.28896129  0.74544496  1
  O  O832  1  0.95020654  0.15006860  0.62343366  1
  H  H833  1  0.53023750  0.31259799  0.59553631  1
  H  H834  1  0.80526147  0.06892206  0.64365478  1
  C  C835  1  0.58773666  0.16946865  0.51178799  1
  H  H836  1  0.65218645  0.04958252  0.69432830  1
  O  O837  1  0.64389881  0.20003017  0.73424083  1
  C  C838  1  0.91368414  0.26804982  0.50426757  1
  C  C839  1  0.97037238  0.01343995  0.71914972  1
  H  H840  1  0.99045304  0.43787492  0.63364052  1
  H  H841  1  0.97909837  0.35646475  0.50216071  1
  O  O842  1  0.98630788  0.04455740  0.61783064  1
  C  C843  1  0.99710349  0.34087903  0.60419785  1
  C  C844  1  0.56944021  0.28603129  0.50872103  1
  C  C845  1  0.68364965  0.00662188  0.69570596  1
  Zn  Zn846  1  0.64424993  0.37559071  0.74202383  1
  H  H847  1  0.68019681  0.39912691  0.98284669  1
  C  C848  1  0.62463901  0.45844595  0.95146698  1
  C  C849  1  0.93127623  0.38681467  0.75988402  1
  O  O850  1  0.55432016  0.45391457  0.82217934  1
  O  O851  1  0.79496904  0.42579317  0.78101128  1
  O  O852  1  0.93651882  0.48128340  0.86634139  1
  C  C853  1  0.73363066  0.29014923  0.90576557  1
  C  C854  1  0.96511307  0.10406157  0.86799164  1
  C  C855  1  0.81717017  0.25360446  0.93375787  1
  Zn  Zn856  1  0.81551451  0.08802643  0.90454726  1
  C  C857  1  0.73553367  0.40634031  0.87348796  1
  C  C858  1  0.68429136  0.08310307  0.77361856  1
  C  C859  1  0.99878855  0.23391624  0.85588667  1
  H  H860  1  0.91127901  0.26923894  0.85131061  1
  C  C861  1  0.97236479  0.36108728  0.85510608  1
  C  C862  1  0.57411976  0.17209696  0.99380379  1
  H  H863  1  0.65185554  0.06384042  0.75886827  1
  C  C864  1  0.81677933  0.36767316  0.90499107  1
  O  O865  1  0.89661888  0.11541121  0.92046966  1
  C  C866  1  0.81375703  0.15019133  0.83785826  1
  C  C867  1  0.60992322  0.39439226  0.93003937  1
  C  C868  1  0.76887531  0.12511522  0.81424293  1
  C  C869  1  0.65862784  0.45069901  0.97804541  1
  O  O870  1  0.76947437  0.12588118  0.95095462  1
  H  H871  1  0.74958619  0.23530413  0.80533699  1
  H  H872  1  0.83493245  0.41690258  0.89570101  1
  O  O873  1  0.57459660  0.40570187  0.77518599  1
  H  H874  1  0.99343186  0.38715699  0.80148519  1
  C  C875  1  0.95639357  0.28735477  0.85374509  1
  O  O876  1  0.70880075  0.45466905  0.76513478  1
  Zn  Zn877  1  0.61395746  0.24876152  0.96602991  1
  H  H878  1  0.84343535  0.21660104  0.94808572  1
  O  O879  1  0.88261478  0.40429449  0.84139424  1
  O  O880  1  0.82877050  0.21138036  0.84080935  1
  C  C881  1  0.69871352  0.15350853  0.77643884  1
  O  O882  1  0.68122379  0.15909135  0.93714966  1
  H  H883  1  0.91793198  0.11130917  0.86603978  1
  C  C884  1  0.76222420  0.35206199  0.89540810  1
  C  C885  1  0.93795424  0.38486311  0.93117885  1
  C  C886  1  0.73017486  0.17313335  0.93856306  1
  Zn  Zn887  1  0.61138242  0.44808711  0.86185096  1
  C  C888  1  0.76053280  0.24275396  0.92623128  1
  C  C889  1  0.92156941  0.07373159  0.98048119  1
  C  C890  1  0.73882248  0.17855527  0.79855970  1
  H  H891  1  0.68982807  0.27741109  0.89969393  1
  O  O892  1  0.68835626  0.39074376  0.86045586  1
  O  O893  1  0.76005873  0.46479518  0.86785081  1
  C  C894  1  0.84627767  0.31721343  0.92285666  1
  O  O895  1  0.83227612  0.10020967  0.85636141  1
  O  O896  1  0.58324752  0.39951628  0.90485908  1
  C  C897  1  0.94275247  0.26854216  0.94059731  1
  N  N898  1  0.90670374  0.32303903  0.93007633  1
  C  C899  1  0.56706342  0.45709647  0.79265488  1
  H  H900  1  0.87802299  0.06294081  0.97123356  1
  Zn  Zn901  1  0.81535567  0.47636372  0.82597555  1
  H  H902  1  0.91985925  0.43827336  0.92591570  1
  C  C903  1  0.92920407  0.42244336  0.85271827  1
  C  C904  1  0.89424743  0.19959004  0.77176155  1
  O  O905  1  0.63197106  0.33739268  0.93942938  1
  N  N906  1  0.97886103  0.04095194  0.84821291  1
  H  H907  1  0.92817218  0.21087391  0.94200040  1
  H  H908  1  0.88260723  0.29735549  0.80447954  1
  H  H909  1  0.94708356  0.06651361  0.76543211  1
  C  C910  1  0.75783041  0.05070750  0.81229644  1
  C  C911  1  0.94722294  0.10315938  0.92585949  1
  C  C912  1  0.89630142  0.27033260  0.78240207  1
  C  C913  1  0.96254099  0.09741404  0.95947169  1
  H  H914  1  0.87359889  0.00910878  0.83056657  1
  C  C915  1  0.70955197  0.03030487  0.79378221  1
  C  C916  1  0.97893267  0.42028148  0.78086921  1
  N  N917  1  0.91949085  0.31056917  0.75784034  1
  N  N918  1  0.99274158  0.37038729  0.93807108  1
  H  H919  1  0.87976197  0.15359322  0.78413460  1
  C  C920  1  0.75490433  0.42271697  0.76231323  1
  H  H921  1  0.77880303  0.01448812  0.83025755  1
  C  C922  1  0.67249137  0.21474278  0.75695539  1
  C  C923  1  0.99686112  0.29788508  0.94552717  1
  O  O924  1  0.68130587  0.27961875  0.76499034  1
  O  O925  1  0.98571727  0.10096725  0.90405240  1
  H  H926  1  0.60521809  0.00951334  0.90579602  1
  C  C927  1  0.98454540  0.49899775  0.77908260  1
  N  N928  1  0.99359586  0.15821598  0.85000831  1
  C  C929  1  0.51020533  0.07403557  0.77986820  1
  O  O930  1  0.54057700  0.04392739  0.76039424  1
  Zn  Zn931  1  0.77787632  0.11566565  0.99681121  1
  N  N932  1  0.84553595  0.84508921  0.04982805  1
  C  C933  1  0.69414748  0.87574152  0.07745713  1
  C  C934  1  0.70531877  0.87534492  0.11043833  1
  H  H935  1  0.67213295  0.89152738  0.12604837  1
  H  H936  1  0.79855046  0.95613275  0.18352602  1
  C  C937  1  0.79309987  0.84481170  0.06965392  1
  C  C938  1  0.87493644  0.66442974  0.15137959  1
  C  C939  1  0.89271765  0.88534895  0.05648611  1
  H  H940  1  0.89691321  0.92960352  0.07651401  1
  O  O941  1  0.78682214  0.67889252  0.08225192  1
  H  H942  1  0.89145818  0.71419241  0.07198223  1
  C  C943  1  0.86057125  0.68121710  0.11956479  1
  Zn  Zn944  1  0.56767540  0.76394896  0.03471759  1
  C  C945  1  0.93176993  0.87172240  0.03276956  1
  O  O946  1  0.59301312  0.86697182  0.16217926  1
  C  C947  1  0.60860260  0.68981909  0.09725458  1
  H  H948  1  0.64145254  0.61785724  0.01048439  1
  O  O949  1  0.72987248  0.86566415  0.17418989  1
  C  C950  1  0.52436268  0.95856120  0.16771581  1
  Zn  Zn951  1  0.65040375  0.79675658  0.18466315  1
  C  C952  1  0.73829432  0.85191331  0.05723491  1
  Zn  Zn953  1  0.68886227  0.63100192  0.14944799  1
  H  H954  1  0.56000559  0.54248083  0.19628642  1
  H  H955  1  0.73188215  0.84854877  0.03177996  1
  C  C956  1  0.63401734  0.89026889  0.06734697  1
  O  O957  1  0.60001254  0.92418244  0.08549311  1
  C  C958  1  0.93216649  0.65269532  0.15763111  1
  C  C959  1  0.91096302  0.77543275  0.22524059  1
  O  O960  1  0.61692090  0.87821841  0.03898442  1
  H  H961  1  0.82118646  0.76152605  0.01473481  1
  H  H962  1  0.61344093  0.56660239  0.13190036  1
  C  C963  1  0.56009801  0.64568788  0.10630153  1
  N  N964  1  0.85490403  0.77065282  0.21777675  1
  O  O965  1  0.65780360  0.66144968  0.10140417  1
  C  C966  1  0.90161075  0.69809107  0.09742516  1
  O  O967  1  0.62428328  0.62143423  0.22712545  1
  C  C968  1  0.94447155  0.62131322  0.19227064  1
  C  C969  1  0.83623122  0.83556503  0.20185944  1
  O  O970  1  0.54364440  0.64515421  0.03434852  1
  C  C971  1  0.77099154  0.85166849  0.15651499  1
  C  C972  1  0.76490669  0.70592088  0.21324291  1
  C  C973  1  0.97652664  0.67237715  0.13807288  1
  C  C974  1  0.88966837  0.95377362  0.19425204  1
  H  H975  1  0.84857576  0.83523038  0.11121914  1
  O  O976  1  0.59817752  0.74565999  0.08290394  1
  O  O977  1  0.65264080  0.68657729  0.18678475  1
  H  H978  1  0.57254579  0.50981651  0.04101655  1
  Zn  Zn979  1  0.69946072  0.98652146  0.18953373  1
  C  C980  1  0.75781968  0.85910197  0.12239432  1
  C  C981  1  0.72678202  0.65754043  0.22687726  1
  O  O982  1  0.90700983  0.57659755  0.20187463  1
  C  C983  1  0.92642774  0.84690228  0.22154281  1
  H  H984  1  0.79318809  0.85373597  0.21276521  1
  H  H985  1  0.83900486  0.65424242  0.16807064  1
  H  H986  1  0.74893584  0.73874380  0.19408710  1
  Zn  Zn987  1  0.71985279  0.65641052  0.05466718  1
  C  C988  1  0.69985918  0.75198779  0.00310920  1
  C  C989  1  0.80002632  0.67619243  0.11069911  1
  C  C990  1  0.80411247  0.84602486  0.10219161  1
  O  O991  1  0.70961564  0.92084872  0.23329300  1
  C  C992  1  0.95926132  0.69463418  0.10691101  1
  C  C993  1  0.99110715  0.71099106  0.04968133  1
  O  O994  1  0.98650686  0.63753941  0.20662395  1
  H  H995  1  0.94773066  0.69584100  0.03913824  1
  C  C996  1  0.82185142  0.70743706  0.22424720  1
  C  C997  1  0.66304658  0.65255425  0.21465513  1
  O  O998  1  0.76632042  0.67515479  0.13415016  1
  O  O999  1  0.63182449  0.85986895  0.22742118  1
  H  H1000  1  0.98251206  0.97955900  0.20755666  1
  N  N1001  1  0.88521185  0.88407858  0.20593107  1
  O  O1002  1  0.71936338  0.52705683  0.15659914  1
  O  O1003  1  0.81951342  0.83199720  0.16566005  1
  H  H1004  1  0.96476313  0.87781180  0.22802780  1
  C  C1005  1  0.85252217  0.80640438  0.02279081  1
  C  C1006  1  0.58326415  0.93315711  0.16134608  1
  O  O1007  1  0.68928500  0.55244893  0.04933203  1
  C  C1008  1  0.52288437  0.54109410  0.13456053  1
  C  C1009  1  0.56944992  0.58294639  0.12401064  1
  H  H1010  1  0.97661017  0.89479007  0.03018936  1
  H  H1011  1  0.52409573  0.95530335  0.06417389  1
  H  H1012  1  0.93696021  0.73343993  0.23646810  1
  N  N1013  1  0.90728153  0.82362462  0.01092502  1
  O  O1014  1  0.74342834  0.72108349  0.01344605  1
  O  O1015  1  0.81304342  0.51004384  0.15568926  1
  O  O1016  1  0.64912719  0.73376802  0.01113144  1
  C  C1017  1  0.67625397  0.87299862  0.24263665  1
  H  H1018  1  0.50922841  0.89523772  0.01272364  1
  H  H1019  1  0.98494076  0.55380606  0.23852672  1
  C  C1020  1  0.69840388  0.50128137  0.02970093  1
  O  O1021  1  0.62154943  0.98036576  0.15820878  1
  C  C1022  1  0.50298747  0.66231114  0.09798559  1
  C  C1023  1  0.83858077  0.98551200  0.18339483  1
  C  C1024  1  0.84068425  0.66346459  0.24968364  1
  N  N1025  1  0.99931340  0.71608169  0.08208239  1
  C  C1026  1  0.94235047  0.99602279  0.19600941  1
  H  H1027  1  0.58786368  0.99119574  0.04374219  1
  Zn  Zn1028  1  0.68645337  0.99577600  0.01739130  1
  O  O1029  1  0.88024900  0.57810099  0.29688661  1
  Zn  Zn1030  1  0.66087506  0.96928721  0.33138483  1
  C  C1031  1  0.53385574  0.78611422  0.41080347  1
  C  C1032  1  0.66101186  0.73153449  0.30653421  1
  C  C1033  1  0.99429096  0.76876066  0.35716758  1
  O  O1034  1  0.64030234  0.85777335  0.40142985  1
  O  O1035  1  0.90065551  0.90797501  0.34202498  1
  H  H1036  1  0.73207791  0.68693834  0.33394619  1
  C  C1037  1  0.54110741  0.99145430  0.46028416  1
  C  C1038  1  0.82906540  0.56594893  0.28704943  1
  O  O1039  1  0.73838338  0.87800220  0.46709604  1
  C  C1040  1  0.80187385  0.61609416  0.26300366  1
  H  H1041  1  0.81460832  0.56666143  0.43122649  1
  O  O1042  1  0.83473320  0.72455416  0.33479026  1
  O  O1043  1  0.96681638  0.75733253  0.33203275  1
  C  C1044  1  0.82195628  0.76076474  0.30991910  1
  C  C1045  1  0.64433934  0.77958006  0.28207590  1
  O  O1046  1  0.98473868  0.95523487  0.44496617  1
  C  C1047  1  0.71936675  0.72463422  0.31618794  1
  O  O1048  1  0.70916265  0.99396297  0.37053710  1
  O  O1049  1  0.80106038  0.51503727  0.29661771  1
  Zn  Zn1050  1  0.91190727  0.66109036  0.32765795  1
  C  C1051  1  0.54176618  0.84255776  0.38945953  1
  O  O1052  1  0.94082336  0.62960437  0.37189555  1
  C  C1053  1  0.87277927  0.54482182  0.38989035  1
  H  H1054  1  0.57370544  0.76345423  0.42115655  1
  O  O1055  1  0.51642624  0.52578457  0.41083063  1
  N  N1056  1  0.53877012  0.61463301  0.31993348  1
  H  H1057  1  0.50873404  0.93095143  0.36048905  1
  H  H1058  1  0.71435649  0.57523308  0.26212352  1
  C  C1059  1  0.76047756  0.76589648  0.30035046  1
  O  O1060  1  0.91884399  0.63366442  0.42221149  1
  C  C1061  1  0.74749662  0.81665082  0.27741192  1
  O  O1062  1  0.86343279  0.50799186  0.47829994  1
  C  C1063  1  0.53283131  0.83500998  0.47893684  1
  O  O1064  1  0.61042033  0.89327740  0.35527006  1
  C  C1065  1  0.60149928  0.86430793  0.38176075  1
  H  H1066  1  0.54404749  0.69731157  0.28455868  1
  C  C1067  1  0.57553136  0.59460738  0.34432365  1
  C  C1068  1  0.62428376  0.63673281  0.34449912  1
  C  C1069  1  0.91250163  0.60707469  0.39474555  1
  C  C1070  1  0.56464622  0.67097976  0.30535597  1
  O  O1071  1  0.97202286  0.79848159  0.38057475  1
  O  O1072  1  0.86197673  0.78082896  0.29249490  1
  O  O1073  1  0.97769362  0.96563079  0.36069961  1
  C  C1074  1  0.68907680  0.82189301  0.26944477  1
  Zn  Zn1075  1  0.66882670  0.93569709  0.44777095  1
  H  H1076  1  0.66675209  0.62717438  0.35490543  1
  Zn  Zn1077  1  0.93078461  0.85587437  0.30111924  1
  H  H1078  1  0.77856001  0.84794459  0.26534853  1
  H  H1079  1  0.95818873  0.89189829  0.49650003  1
  N  N1080  1  0.61730495  0.68224784  0.31918190  1
  H  H1081  1  0.80676783  0.96612809  0.35916953  1
  O  O1082  1  0.89594462  0.95671543  0.27890454  1
  C  C1083  1  0.74862305  0.86424328  0.49643511  1
  H  H1084  1  0.88607419  0.66077413  0.25798762  1
  C  C1085  1  0.92186039  0.96283527  0.35488467  1
  C  C1086  1  0.58995559  0.97902705  0.44251786  1
  H  H1087  1  0.59876313  0.78523961  0.27429854  1
  H  H1088  1  0.63725802  0.84803982  0.48189874  1
  Zn  Zn1089  1  0.97782408  0.57628109  0.45522961  1
  H  H1090  1  0.56757798  0.81829489  0.46292338  1
  O  O1091  1  0.98977294  0.66258980  0.48440711  1
  O  O1092  1  0.74704342  0.63787214  0.49102566  1
  H  H1093  1  0.56966320  0.54135123  0.35671834  1
  H  H1094  1  0.52840378  0.97396042  0.48363585  1
  C  C1095  1  0.59721246  0.99917996  0.40951612  1
  C  C1096  1  0.82850146  0.52999230  0.41208120  1
  O  O1097  1  0.55394357  0.52451456  0.45950557  1
  H  H1098  1  0.63911147  0.99092417  0.39706908  1
  Zn  Zn1099  1  0.78076683  0.53330510  0.49297955  1
  O  O1100  1  0.50207520  0.68082918  0.45402468  1
  Zn  Zn1101  1  0.99672817  0.89768748  0.40475498  1
  C  C1102  1  0.88547859  0.50107965  0.36489108  1
  H  H1103  1  0.92355817  0.50928904  0.34905492  1
  C  C1104  1  0.74544884  0.61384171  0.25132221  1
  C  C1105  1  0.72458323  0.69222000  0.57098489  1
  H  H1106  1  0.68210024  0.66484129  0.57113530  1
  C  C1107  1  0.80611569  0.72450815  0.53901874  1
  C  C1108  1  0.51340884  0.52713076  0.60696960  1
  C  C1109  1  0.80406700  0.83872508  0.72525854  1
  O  O1110  1  0.59913719  0.84376608  0.69521199  1
  C  C1111  1  0.53487810  0.64497367  0.63485732  1
  C  C1112  1  0.66417455  0.93181977  0.69641653  1
  C  C1113  1  0.59498477  0.85068383  0.52694627  1
  C  C1114  1  0.53910475  0.56234255  0.63343512  1
  O  O1115  1  0.85560888  0.85172554  0.72696089  1
  H  H1116  1  0.92731445  0.71192939  0.60691441  1
  C  C1117  1  0.76851353  0.89497474  0.71029113  1
  O  O1118  1  0.75375118  0.70485325  0.65502599  1
  C  C1119  1  0.75165709  0.71444695  0.59864860  1
  C  C1120  1  0.72375541  0.70729362  0.63019709  1
  C  C1121  1  0.99100149  0.94304183  0.73452967  1
  O  O1122  1  0.67121141  0.69687809  0.63089657  1
  O  O1123  1  0.92607107  0.69944541  0.73391763  1
  H  H1124  1  0.55991595  0.84687560  0.57569003  1
  C  C1125  1  0.65287713  0.85967775  0.57241581  1
  Zn  Zn1126  1  0.73607593  0.94080666  0.67046104  1
  N  N1127  1  0.89197754  0.77146451  0.56770153  1
  C  C1128  1  0.93473356  0.75017599  0.58752365  1
  C  C1129  1  0.90889057  0.82208359  0.54732504  1
  O  O1130  1  0.57625344  0.94493760  0.66838785  1
  O  O1131  1  0.73582819  0.52566989  0.65161166  1
  C  C1132  1  0.56449866  0.52491293  0.65803773  1
  C  C1133  1  0.70474387  0.88149191  0.71261850  1
  O  O1134  1  0.52115265  0.99767484  0.58425586  1
  O  O1135  1  0.95483334  0.55948587  0.62717822  1
  O  O1136  1  0.70605713  0.86707371  0.61904403  1
  O  O1137  1  0.54814379  0.67462322  0.66125912  1
  C  C1138  1  0.59807473  0.85046313  0.56039292  1
  H  H1139  1  0.95436063  0.60683582  0.53778775  1
  C  C1140  1  0.65800835  0.85841331  0.60760748  1
  H  H1141  1  0.74321127  0.87019117  0.56561401  1
  C  C1142  1  0.64379540  0.85874610  0.50761314  1
  Zn  Zn1143  1  0.61021555  0.76099748  0.66215112  1
  C  C1144  1  0.60637117  0.90865906  0.68735499  1
  C  C1145  1  0.70185595  0.86487033  0.55358178  1
  Zn  Zn1146  1  0.75708482  0.61158948  0.68284289  1
  H  H1147  1  0.83250609  0.75481230  0.61981138  1
  C  C1148  1  0.90263202  0.50493506  0.73335282  1
  H  H1149  1  0.98766266  0.96766646  0.67479872  1
  H  H1150  1  0.87919941  0.83949078  0.52903980  1
  H  H1151  1  0.99369799  0.64695894  0.69309806  1
  C  C1152  1  0.95701898  0.56300925  0.59778865  1
  O  O1153  1  0.51304317  0.67862994  0.61403942  1
  O  O1154  1  0.65150168  0.71192153  0.70649565  1
  C  C1155  1  0.85593400  0.55042910  0.72254275  1
  C  C1156  1  0.83280927  0.74278978  0.56775423  1
  H  H1157  1  0.58574616  0.55012686  0.67831238  1
  C  C1158  1  0.75206070  0.69725648  0.54181337  1
  C  C1159  1  0.80920744  0.74061617  0.59785121  1
  O  O1160  1  0.91482126  0.54138417  0.58083391  1
  O  O1161  1  0.61324811  0.84641997  0.62440827  1
  H  H1162  1  0.83148998  0.73124160  0.51669104  1
  C  C1163  1  0.60345492  0.62765971  0.73985354  1
  C  C1164  1  0.69853003  0.86102891  0.52078378  1
  C  C1165  1  0.64958796  0.64901300  0.71847121  1
  O  O1166  1  0.69072164  0.60431459  0.71761782  1
  C  C1167  1  0.79320647  0.96789632  0.70676862  1
  H  H1168  1  0.68891111  0.83138130  0.72287139  1
  O  O1169  1  0.78332401  0.78078259  0.73818067  1
  O  O1170  1  0.66746680  0.64605942  0.51747826  1
  O  O1171  1  0.83974483  0.55773042  0.69434111  1
  Zn  Zn1172  1  0.54367770  0.93201519  0.62394663  1
  C  C1173  1  0.71686560  0.66035373  0.51464161  1
  O  O1174  1  0.83353976  0.58357600  0.74500432  1
  N  N1175  1  0.96246619  0.84234300  0.55614312  1
  O  O1176  1  0.79802741  0.85843802  0.50632976  1
  N  N1177  1  0.54039184  0.85147140  0.51111799  1
  Zn  Zn1178  1  0.52187966  0.57930974  0.74215646  1
  H  H1179  1  0.56701161  0.73925942  0.74589679  1
  C  C1180  1  0.96947807  0.72689063  0.74549410  1
  C  C1181  1  0.56073880  0.68031275  0.74934080  1
  C  C1182  1  0.99579274  0.62006224  0.54891178  1
  C  C1183  1  0.99927576  0.89652047  0.54226283  1
  C  C1184  1  0.98087050  0.79138835  0.57829576  1
  C  C1185  1  0.99377411  0.91393051  0.50995015  1
  H  H1186  1  0.74209419  0.50003254  0.70683949  1
  H  H1187  1  0.83298008  0.98554860  0.71869656  1
  O  O1188  1  0.76427360  0.88998136  0.82931109  1
  O  O1189  1  0.97597537  0.93892076  0.76422642  1
  O  O1190  1  0.80272194  0.97526696  0.90714418  1
  C  C1191  1  0.65116685  0.66639602  0.84559479  1
  C  C1192  1  0.70475300  0.63744026  0.84338582  1
  N  N1193  1  0.66982548  0.84355814  0.80380742  1
  C  C1194  1  0.99518899  0.69735909  0.95041991  1
  C  C1195  1  0.63472733  0.73238268  0.83274338  1
  C  C1196  1  0.67581735  0.77049029  0.81358666  1
  H  H1197  1  0.85098598  0.73455193  0.96402654  1
  C  C1198  1  0.65487287  0.90652055  0.95123083  1
  H  H1199  1  0.58076500  0.84386665  0.80992898  1
  Zn  Zn1200  1  0.91762794  0.90239877  0.88782751  1
  C  C1201  1  0.55100737  0.75684669  0.94191054  1
  O  O1202  1  0.96371159  0.77500647  0.76685275  1
  O  O1203  1  0.81896706  0.58796107  0.83222139  1
  C  C1204  1  0.71606686  0.89369199  0.79928409  1
  C  C1205  1  0.55655102  0.92258975  0.96804550  1
  H  H1206  1  0.59028501  0.75258625  0.83617704  1
  O  O1207  1  0.83641240  0.68778765  0.80499086  1
  O  O1208  1  0.85344752  0.62819692  0.93338554  1
  C  C1209  1  0.60889421  0.61885004  0.86425571  1
  H  H1210  1  0.87120950  0.78040367  0.84480953  1
  C  C1211  1  0.65614905  0.84671304  0.97207954  1
  C  C1212  1  0.51892317  0.99330519  0.93165496  1
  C  C1213  1  0.60556170  0.57865563  0.96506904  1
  N  N1214  1  0.50356188  0.71609360  0.80178620  1
  C  C1215  1  0.59731743  0.52155378  0.94345957  1
  C  C1216  1  0.80603481  0.64806092  0.82250088  1
  O  O1217  1  0.93760792  0.58907462  0.91912442  1
  C  C1218  1  0.94310315  0.53881789  0.75779190  1
  H  H1219  1  0.71173239  0.58301063  0.85274170  1
  C  C1220  1  0.80882814  0.92941559  0.93016366  1
  C  C1221  1  0.81717818  0.89402641  0.82219878  1
  H  H1222  1  0.93455974  0.59560282  0.76464513  1
  C  C1223  1  0.89490161  0.96664493  0.84337163  1
  C  C1224  1  0.86398712  0.89900635  0.84478726  1
  O  O1225  1  0.85348987  0.90353935  0.93805743  1
  C  C1226  1  0.57788926  0.98632683  0.92560843  1
  C  C1227  1  0.98915316  0.89630489  0.85711198  1
  C  C1228  1  0.75582489  0.90061503  0.94660725  1
  C  C1229  1  0.62851316  0.95285686  0.79916652  1
  H  H1230  1  0.70716202  0.98332419  0.92176326  1
  Zn  Zn1231  1  0.84178882  0.69780577  0.75555336  1
  C  C1232  1  0.59778413  0.71234782  0.94818912  1
  N  N1233  1  0.59922345  0.94078306  0.94769203  1
  C  C1234  1  0.56435868  0.52861682  0.77842277  1
  O  O1235  1  0.96214267  0.70867142  0.86394776  1
  C  C1236  1  0.74578468  0.67611283  0.82535469  1
  Zn  Zn1237  1  0.90691894  0.86374199  0.76850588  1
  C  C1238  1  0.61961871  0.87830311  0.80499342  1
  C  C1239  1  0.89515783  0.82933039  0.85197701  1
  C  C1240  1  0.95918526  0.97215334  0.85323008  1
  O  O1241  1  0.62646281  0.55974979  0.87488381  1
  N  N1242  1  0.68491243  0.96074968  0.79482841  1
  N  N1243  1  0.57737309  0.64841447  0.95743618  1
  C  C1244  1  0.70597269  0.81074325  0.97936125  1
  H  H1245  1  0.79749998  0.81937534  0.97140727  1
  C  C1246  1  0.63732244  0.57297703  0.99338529  1
  C  C1247  1  0.93435468  0.69851955  0.94916816  1
  C  C1248  1  0.95951520  0.82806400  0.85762183  1
  C  C1249  1  0.89893206  0.74318762  0.96528690  1
  H  H1250  1  0.75842352  0.76405869  0.79366008  1
  H  H1251  1  0.74589127  0.87862359  0.77974394  1
  C  C1252  1  0.75584310  0.84099131  0.96661260  1
  O  O1253  1  0.83178706  0.90332264  0.79417609  1
  C  C1254  1  0.70562337  0.93643669  0.93817016  1
  C  C1255  1  0.90406284  0.63364920  0.93224523  1
  C  C1256  1  0.72987584  0.73890737  0.80966649  1
  H  H1257  1  0.64474999  0.72436010  0.94698156  1
  O  O1258  1  0.56116897  0.64108335  0.86993401  1
  Zn  Zn1259  1  0.96948648  0.58951536  0.87123535  1
  O  O1260  1  0.98959863  0.58798675  0.81824162  1
  C  C1261  1  0.93175436  0.79421595  0.98390738  1
  C  C1262  1  0.99122808  0.76027615  0.85406426  1
  N  N1263  1  0.50621717  0.95386308  0.95847549  1
  H  H1264  1  0.61845160  0.82287709  0.98277190  1
  H  H1265  1  0.55175200  0.81623120  0.93816653  1
  C  C1266  1  0.99125837  0.81051985  0.97918142  1
  H  H1267  1  0.51286942  0.80690331  0.77152135  1
  H  H1268  1  0.56926507  0.52105402  0.92045044  1
  C  C1269  1  0.51899490  0.64923648  0.95617689  1
  H  H1270  1  0.51042687  0.57399889  0.81761047  1
  H  H1271  1  0.55894334  0.89440036  0.99116562  1
  C  C1272  1  0.52932725  0.58572071  0.79334825  1
  H  H1273  1  0.51696269  0.93517712  0.77913039  1
  C  C1274  1  0.52456759  0.66309802  0.77959328  1
  C  C1275  1  0.60968981  0.55541103  0.75605479  1
  C  C1276  1  0.66300378  0.50755868  0.99896633  1
  N  N1277  1  0.50200190  0.71611925  0.94542955  1
  H  H1278  1  0.59979255  0.99929514  0.80011777  1
  H  H1279  1  0.65374822  0.53799995  0.75859390  1
