# generated using pymatgen
data_Cu3H17C36N9O14
_symmetry_space_group_name_H-M   'P 1'
_cell_length_a   27.95916297
_cell_length_b   22.93604422
_cell_length_c   32.08829433
_cell_angle_alpha   90.00000000
_cell_angle_beta   90.00000000
_cell_angle_gamma   90.00000000
_symmetry_Int_Tables_number   1
_chemical_formula_structural   Cu3H17C36N9O14
_chemical_formula_sum   'Cu48 H272 C576 N144 O224'
_cell_volume   20577.34388328
_cell_formula_units_Z   16
loop_
 _symmetry_equiv_pos_site_id
 _symmetry_equiv_pos_as_xyz
  1  'x, y, z'
loop_
 _atom_site_type_symbol
 _atom_site_label
 _atom_site_symmetry_multiplicity
 _atom_site_fract_x
 _atom_site_fract_y
 _atom_site_fract_z
 _atom_site_occupancy
  N  N0  1  0.07004258  0.31629007  0.14881138  1
  N  N1  1  0.04136266  0.29425771  0.12583750  1
  Cu  Cu2  1  0.05491198  0.28172575  0.06189440  1
  C  C3  1  0.19072915  0.41368646  0.06695106  1
  N  N4  1  0.11323794  0.18265469  0.20516909  1
  C  C5  1  0.17723562  0.45928282  0.03910473  1
  Cu  Cu6  1  0.07696137  0.11679363  0.07206197  1
  C  C7  1  0.22280126  0.13051067  0.03643462  1
  H  H8  1  0.14280839  0.46843817  0.10642493  1
  O  O9  1  0.14507110  0.10871951  0.06548165  1
  H  H10  1  0.12777053  0.09231392  0.15285637  1
  O  O11  1  0.11311724  0.31328407  0.06283781  1
  C  C12  1  0.20351909  0.36168778  0.04812346  1
  Cu  Cu13  1  0.14031779  0.32065870  0.13191023  1
  C  C14  1  0.10189253  0.08362558  0.17784747  1
  C  C15  1  0.09425630  0.12661942  0.20979358  1
  O  O16  1  0.13512767  0.24312183  0.14270370  1
  H  H17  1  0.12404618  0.22415511  0.17013670  1
  H  H18  1  0.12842503  0.32804933  0.03923540  1
  O  O19  1  0.07609961  0.18693967  0.09147382  1
  C  C20  1  0.17239988  0.11219554  0.03332255  1
  H  H21  1  0.09989163  0.20038367  0.11358317  1
  H  H22  1  0.19779618  0.42421203  0.09912892  1
  N  N23  1  0.20040096  0.40641981  0.19773032  1
  N  N24  1  0.16605075  0.33080593  0.19184489  1
  N  N25  1  0.15920965  0.29332551  0.21783087  1
  O  O26  1  0.20545890  0.31563495  0.11684937  1
  C  C27  1  0.07902580  0.03125929  0.18016161  1
  C  C28  1  0.21500957  0.31067780  0.07677907  1
  O  O29  1  0.07493737  0.03709322  0.05656099  1
  C  C30  1  0.12905512  0.19971489  0.24137044  1
  H  H31  1  0.22500658  0.12191103  0.10384899  1
  H  H32  1  0.22916781  0.30364592  0.21612992  1
  C  C33  1  0.05926869  0.11695617  0.24200852  1
  C  C34  1  0.04400532  0.02267725  0.21054252  1
  C  C35  1  0.03574903  0.06332859  0.24183037  1
  Cu  Cu36  1  0.01478036  0.03146486  0.04094801  1
  N  N37  1  0.24245541  0.41180520  0.19351253  1
  C  C38  1  0.19840049  0.35097542  0.00524139  1
  O  O39  1  0.23429805  0.26778984  0.06532949  1
  N  N40  1  0.05697481  0.12068028  0.00622351  1
  C  C41  1  0.24482835  0.12990929  0.07512069  1
  O  O42  1  0.24840489  0.13010839  0.22405941  1
  C  C43  1  0.15290309  0.25359024  0.24878975  1
  O  O44  1  0.35226273  0.31413838  0.19358985  1
  C  C45  1  0.43108711  0.01754674  0.00927437  1
  N  N46  1  0.38799329  0.00076299  0.02266497  1
  H  H47  1  0.25906851  0.47612372  0.19760322  1
  O  O48  1  0.25937020  0.29751340  0.20494095  1
  H  H49  1  0.49283994  0.24880458  0.11477501  1
  C  C50  1  0.31753206  0.22398803  0.24691307  1
  O  O51  1  0.39512795  0.34615789  0.24558588  1
  C  C52  1  0.46807864  0.05995643  0.18715449  1
  C  C53  1  0.39975296  0.40046949  0.05957101  1
  N  N54  1  0.47798598  0.38114773  0.03002657  1
  H  H55  1  0.48862763  0.14910107  0.18162261  1
  O  O56  1  0.28577088  0.12314621  0.14935571  1
  C  C57  1  0.47248747  0.45575867  0.08144969  1
  C  C58  1  0.29604388  0.14978757  0.00291003  1
  O  O59  1  0.27499678  0.00965311  0.15891383  1
  H  H60  1  0.36032663  0.15597496  0.04526357  1
  H  H61  1  0.49272918  0.36289069  0.08819226  1
  C  C62  1  0.48314309  0.22071775  0.22611162  1
  C  C63  1  0.44273597  0.02172382  0.21336136  1
  C  C64  1  0.32148454  0.14957266  0.04152065  1
  C  C65  1  0.45341035  0.46639663  0.11901114  1
  O  O66  1  0.30222335  0.39055270  0.08133362  1
  H  H67  1  0.30463143  0.22892541  0.21424413  1
  C  C68  1  0.40764728  0.44540082  0.13056926  1
  C  C69  1  0.44738123  0.41846601  0.05141904  1
  O  O70  1  0.32096062  0.40537365  0.14827094  1
  C  C71  1  0.36723705  0.31247802  0.23168851  1
  Cu  Cu72  1  0.26421442  0.06990516  0.19114541  1
  H  H73  1  0.37237312  0.38219646  0.03692319  1
  Cu  Cu74  1  0.29360820  0.34828434  0.17674850  1
  C  C75  1  0.48988864  0.03433683  0.14863824  1
  C  C76  1  0.47169509  0.11624755  0.20087081  1
  C  C77  1  0.33121978  0.40037259  0.10777054  1
  C  C78  1  0.45367161  0.13461763  0.24029859  1
  C  C79  1  0.31688014  0.13208262  0.11895005  1
  O  O80  1  0.35949616  0.13647161  0.12274825  1
  C  C81  1  0.48842568  0.49084053  0.15181013  1
  H  H82  1  0.39405419  0.44784710  0.16325350  1
  C  C83  1  0.29420094  0.13920134  0.07682885  1
  C  C84  1  0.38356903  0.41631458  0.09883066  1
  C  C85  1  0.19695762  0.21206586  0.35621306  1
  C  C86  1  0.18418494  0.25922692  0.38120758  1
  H  H87  1  0.19371297  0.25437338  0.41374897  1
  C  C88  1  0.16118919  0.30670654  0.36259110  1
  C  C89  1  0.14443560  0.35233112  0.39055338  1
  C  C90  1  0.11537764  0.40319103  0.38052774  1
  C  C91  1  0.12806389  0.44741524  0.47638347  1
  N  N92  1  0.16125512  0.34446029  0.42970943  1
  N  N93  1  0.17357549  0.34669349  0.46633925  1
  N  N94  1  0.10381021  0.41644173  0.34204721  1
  C  C95  1  0.14983221  0.30548374  0.31816427  1
  H  H96  1  0.09690510  0.43565245  0.39996554  1
  C  C97  1  0.07786323  0.46795020  0.33741750  1
  H  H98  1  0.13379848  0.34323260  0.30189039  1
  H  H99  1  0.19676531  0.17076031  0.29336472  1
  C  C100  1  0.16444262  0.25903716  0.29423458  1
  C  C101  1  0.18676690  0.21043220  0.31245545  1
  H  H102  1  0.22225262  0.43590092  0.45565674  1
  C  C103  1  0.20712252  0.47454455  0.44157072  1
  O  O104  1  0.08384698  0.45800872  0.47819186  1
  H  H105  1  0.12017557  0.16697931  0.26799817  1
  Cu  Cu106  1  0.03241763  0.41013506  0.48931890  1
  H  H107  1  0.11505549  0.47812046  0.27631277  1
  N  N108  1  0.22008448  0.10722628  0.36808414  1
  H  H109  1  0.04244068  0.47572687  0.39921675  1
  C  C110  1  0.15836449  0.48618670  0.45032114  1
  H  H111  1  0.05264579  0.14925470  0.26639056  1
  C  C112  1  0.22602333  0.16490951  0.37544784  1
  N  N113  1  0.22853237  0.05503872  0.37507910  1
  C  C114  1  0.08614265  0.49119746  0.29767144  1
  C  C115  1  0.04383663  0.48926908  0.36727553  1
  O  O116  1  0.14832537  0.40657273  0.49513022  1
  N  N117  1  0.24758569  0.03645692  0.42346036  1
  H  H118  1  0.23346264  0.38046265  0.49775217  1
  H  H119  1  0.48148794  0.01840294  0.37358025  1
  O  O120  1  0.25746841  0.09884603  0.28709467  1
  N  N121  1  0.41875913  0.49945193  0.46904432  1
  N  N122  1  0.49983173  0.14558294  0.36602816  1
  H  H123  1  0.25040281  0.19088778  0.49569697  1
  Cu  Cu124  1  0.31762166  0.45336986  0.48720002  1
  C  C125  1  0.25940301  0.17599819  0.40794526  1
  N  N126  1  0.27008264  0.22982576  0.41625766  1
  Cu  Cu127  1  0.45841128  0.42569827  0.48551433  1
  C  C128  1  0.32225164  0.17224633  0.31335328  1
  C  C129  1  0.28162962  0.21565019  0.49087211  1
  H  H130  1  0.45018924  0.49629613  0.40952814  1
  O  O131  1  0.37719511  0.00510510  0.30723481  1
  H  H132  1  0.35551991  0.49666266  0.30558371  1
  C  C133  1  0.44955834  0.09293011  0.48889960  1
  C  C134  1  0.45917449  0.15931007  0.37940411  1
  H  H135  1  0.34922299  0.28133944  0.41177528  1
  C  C136  1  0.42670114  0.19120622  0.35187928  1
  H  H137  1  0.41720310  0.11059727  0.30013038  1
  H  H138  1  0.43435981  0.20813683  0.32064190  1
  N  N139  1  0.41327756  0.49303013  0.33311811  1
  H  H140  1  0.31479150  0.13705945  0.33546738  1
  N  N141  1  0.38320994  0.20095362  0.36126348  1
  C  C142  1  0.36115975  0.29318809  0.47720279  1
  C  C143  1  0.26618946  0.13567110  0.26055424  1
  C  C144  1  0.33917085  0.26795105  0.44286998  1
  O  O145  1  0.29615726  0.44887782  0.43050156  1
  H  H146  1  0.47310648  0.44885357  0.27657270  1
  C  C147  1  0.43739095  0.13079246  0.42083174  1
  C  C148  1  0.31962660  0.06010669  0.46197559  1
  C  C149  1  0.45944014  0.47624209  0.34064652  1
  C  C150  1  0.35147924  0.26405725  0.26106394  1
  C  C151  1  0.47319536  0.48207614  0.38322071  1
  C  C152  1  0.39169642  0.10519409  0.41865038  1
  C  C153  1  0.36902135  0.07832899  0.45578553  1
  C  C154  1  0.40118122  0.07417611  0.49029792  1
  C  C155  1  0.36905309  0.26358145  0.30150927  1
  H  H156  1  0.39582150  0.29607273  0.31169582  1
  N  N157  1  0.28865175  0.05625210  0.42778416  1
  H  H158  1  0.27596368  0.14669779  0.42974977  1
  C  C159  1  0.46748714  0.12940101  0.45558674  1
  C  C160  1  0.28559477  0.49568544  0.41107319  1
  O  O161  1  0.42308158  0.33634242  0.43704022  1
  C  C162  1  0.30439448  0.17863831  0.27319495  1
  C  C163  1  0.48777970  0.45353379  0.30829738  1
  C  C164  1  0.40366096  0.33349969  0.46977986  1
  C  C165  1  0.29588275  0.23754747  0.45149476  1
  H  H166  1  0.36935017  0.11065111  0.39000875  1
  C  C167  1  0.35755035  0.21258533  0.32458667  1
  C  C168  1  0.42566089  0.04230541  0.25156994  1
  C  C169  1  0.42891235  0.09751218  0.26889719  1
  N  N170  1  0.46076304  0.18863264  0.25432381  1
  H  H171  1  0.19730110  0.02975739  0.65455072  1
  H  H172  1  0.17897674  0.42440345  0.69126436  1
  H  H173  1  0.08032452  0.13771888  0.67918398  1
  C  C174  1  0.04685725  0.12331008  0.66384289  1
  C  C175  1  0.04277851  0.06373804  0.65799487  1
  C  C176  1  0.22474960  0.04041765  0.63040471  1
  O  O177  1  0.06206194  0.23831364  0.66526589  1
  C  C178  1  0.20281413  0.40958815  0.71527334  1
  O  O179  1  0.20516624  0.33832332  0.56396599  1
  O  O180  1  0.11899187  0.04638702  0.68628749  1
  H  H181  1  0.19391420  0.32376709  0.53907116  1
  O  O182  1  0.04674091  0.45723245  0.58039239  1
  C  C183  1  0.08461730  0.02348630  0.67224878  1
  O  O184  1  0.22878394  0.39954958  0.63367284  1
  C  C185  1  0.02049024  0.22456327  0.66375298  1
  H  H186  1  0.01235534  0.05834848  0.73222681  1
  O  O187  1  0.22658005  0.12476320  0.69744407  1
  C  C188  1  0.00136814  0.03688693  0.64593615  1
  C  C189  1  0.00775480  0.15776766  0.65344961  1
  C  C190  1  0.00874700  0.46684660  0.56424225  1
  C  C191  1  0.24159121  0.37913311  0.70434683  1
  O  O192  1  0.00265506  0.31680071  0.55561296  1
  N  N193  1  0.00029389  0.09278609  0.74974142  1
  O  O194  1  0.00198940  0.46644256  0.52396404  1
  H  H195  1  0.01685576  0.49411956  0.64193188  1
  Cu  Cu196  1  0.24599803  0.40068271  0.57611441  1
  C  C197  1  0.14875405  0.49532189  0.74933601  1
  C  C198  1  0.43735262  0.22208567  0.60699093  1
  O  O199  1  0.30924620  0.23536232  0.60020395  1
  C  C200  1  0.49781445  0.06990970  0.68272373  1
  O  O201  1  0.48653553  0.02055169  0.69452556  1
  C  C202  1  0.29681854  0.04597581  0.57006909  1
  N  N203  1  0.45785503  0.02109527  0.58914613  1
  O  O204  1  0.25637700  0.39751329  0.51703124  1
  H  H205  1  0.38170695  0.07995710  0.73047471  1
  O  O206  1  0.28189543  0.47388173  0.58397874  1
  O  O207  1  0.28322193  0.33323369  0.64828447  1
  C  C208  1  0.39123845  0.10897551  0.70318143  1
  O  O209  1  0.28629516  0.16980853  0.66740109  1
  O  O210  1  0.45387361  0.20513352  0.57514568  1
  C  C211  1  0.41209624  0.12664482  0.62782521  1
  C  C212  1  0.25214822  0.36890151  0.65987824  1
  C  C213  1  0.25234245  0.13069064  0.66713729  1
  O  O214  1  0.45904379  0.38979014  0.59242770  1
  C  C215  1  0.25764017  0.08662082  0.63299497  1
  O  O216  1  0.43570598  0.27720404  0.61859086  1
  H  H217  1  0.32698496  0.06081028  0.68952520  1
  O  O218  1  0.25395888  0.18882898  0.56445924  1
  C  C219  1  0.27035391  0.35401486  0.73460458  1
  C  C220  1  0.34367120  0.28104191  0.51692101  1
  H  H221  1  0.35972668  0.29820141  0.54504489  1
  O  O222  1  0.46584800  0.45439064  0.54340489  1
  O  O223  1  0.34280444  0.46143610  0.54293711  1
  C  C224  1  0.41896905  0.18477705  0.64102284  1
  N  N225  1  0.32421801  0.05723805  0.53594562  1
  Cu  Cu226  1  0.28774817  0.24749715  0.65541066  1
  C  C227  1  0.30762257  0.24070196  0.52301067  1
  H  H228  1  0.42301308  0.25172783  0.68765904  1
  C  C229  1  0.48290898  0.43010017  0.57647082  1
  H  H230  1  0.30338797  0.33126250  0.72727605  1
  N  N231  1  0.37800654  0.03519710  0.65156573  1
  C  C232  1  0.32104916  0.49058262  0.56917610  1
  H  H233  1  0.27876580  0.02744271  0.73698575  1
  H  H234  1  0.41934278  0.11393018  0.59661506  1
  H  H235  1  0.38926990  0.05191098  0.51717416  1
  C  C236  1  0.41255721  0.20571472  0.68158597  1
  C  C237  1  0.39894287  0.16585822  0.71220178  1
  C  C238  1  0.34038062  0.02132691  0.67242845  1
  C  C239  1  0.28839377  0.22081681  0.56489803  1
  H  H240  1  0.31431465  0.12793588  0.60376171  1
  N  N241  1  0.45494576  0.04634069  0.55519487  1
  C  C242  1  0.47949916  0.07681628  0.52569833  1
  C  C243  1  0.39142463  0.09232992  0.65988501  1
  C  C244  1  0.29058957  0.09051452  0.60206026  1
  Cu  Cu245  1  0.48447963  0.33797745  0.63215024  1
  O  O246  1  0.41638279  0.36710277  0.50085949  1
  O  O247  1  0.49175504  0.31996724  0.73690489  1
  H  H248  1  0.26146352  0.03655439  0.50871332  1
  C  C249  1  0.29837951  0.05037873  0.50261300  1
  O  O250  1  0.10605512  0.20519738  0.93889289  1
  N  N251  1  0.18100564  0.07282058  0.77798888  1
  H  H252  1  0.08288777  0.19302050  0.95525120  1
  H  H253  1  0.05022717  0.19129676  0.91441875  1
  C  C254  1  0.04245393  0.34776183  0.87177766  1
  N  N255  1  0.04783379  0.29859359  0.89182853  1
  Cu  Cu256  1  0.11431602  0.28227473  0.92150013  1
  O  O257  1  0.15377377  0.41980909  0.91353904  1
  C  C258  1  0.17125166  0.38228258  0.93349569  1
  H  H259  1  0.10929476  0.45398558  0.80744970  1
  O  O260  1  0.16971505  0.32673817  0.92524482  1
  N  N261  1  0.15812966  0.11194828  0.79540804  1
  C  C262  1  0.07158608  0.47085239  0.80234795  1
  H  H263  1  0.22506676  0.14771234  0.97120535  1
  N  N264  1  0.10200228  0.29799069  0.98354944  1
  C  C265  1  0.18157203  0.39532036  0.97962575  1
  C  C266  1  0.04084443  0.39527520  0.85402440  1
  C  C267  1  0.03396190  0.44988675  0.82979252  1
  C  C268  1  0.00727823  0.26402985  0.88940292  1
  C  C269  1  0.01444212  0.20529108  0.90068209  1
  N  N270  1  0.02163179  0.13163740  0.98625074  1
  O  O271  1  0.02089255  0.09255333  0.93654876  1
  H  H272  1  0.15492579  0.48491099  0.97633918  1
  N  N273  1  0.15112709  0.44501259  0.76900910  1
  H  H274  1  0.20105622  0.37777785  0.82402230  1
  C  C275  1  0.21324285  0.38052707  0.79014261  1
  C  C276  1  0.19046823  0.01495103  0.78368413  1
  Cu  Cu277  1  0.09997456  0.04757560  0.99966237  1
  O  O278  1  0.15036206  0.26501011  0.80596033  1
  C  C279  1  0.18824300  0.41175616  0.75861483  1
  H  H280  1  0.13868661  0.00678568  0.83533174  1
  C  C281  1  0.13624036  0.22076420  0.79066021  1
  C  C282  1  0.05278773  0.26514390  0.78137072  1
  H  H283  1  0.06861961  0.30747832  0.78943780  1
  C  C284  1  0.08155084  0.21617686  0.78216880  1
  O  O285  1  0.16558846  0.18128400  0.77621118  1
  C  C286  1  0.00537160  0.25533445  0.76914743  1
  C  C287  1  0.06593957  0.15826215  0.77668859  1
  H  H288  1  0.09059986  0.12310746  0.77677476  1
  C  C289  1  0.17098023  0.44869874  0.99511353  1
  C  C290  1  0.01939786  0.15039859  0.76177244  1
  N  N291  1  0.06770564  0.27878403  0.99877728  1
  H  H292  1  0.20715400  0.30617195  0.99199448  1
  O  O293  1  0.15709827  0.09945178  0.99838616  1
  C  C294  1  0.24621180  0.14193449  0.99949741  1
  O  O295  1  0.25893607  0.02769493  0.92016529  1
  N  N296  1  0.49750121  0.35976692  0.89020675  1
  O  O297  1  0.27769079  0.06775504  0.85969267  1
  H  H298  1  0.49980613  0.05581217  0.76319546  1
  H  H299  1  0.49336954  0.24512681  0.79076203  1
  C  C300  1  0.38919218  0.10998005  0.91906444  1
  C  C301  1  0.27879264  0.02972872  0.88631894  1
  N  N302  1  0.48766193  0.38642514  0.93696259  1
  C  C303  1  0.49949332  0.14981584  0.78353472  1
  H  H304  1  0.42988372  0.25373176  0.87462310  1
  N  N305  1  0.35648314  0.19213092  0.88214544  1
  C  C306  1  0.39269744  0.18369808  0.75751190  1
  N  N307  1  0.32196482  0.16593957  0.97107366  1
  C  C308  1  0.42998486  0.11075402  0.89140759  1
  O  O309  1  0.39961016  0.23931760  0.76854987  1
  N  N310  1  0.45223685  0.27131856  0.93993121  1
  C  C311  1  0.28439806  0.32131080  0.80672486  1
  H  H312  1  0.27427107  0.12247411  0.93383873  1
  N  N313  1  0.49346617  0.13820188  0.82527220  1
  Cu  Cu314  1  0.48054695  0.32728594  0.97447296  1
  H  H315  1  0.35477179  0.07048326  0.97405587  1
  H  H316  1  0.42696677  0.13538089  0.86202888  1
  C  C317  1  0.43203238  0.04937447  0.96945753  1
  H  H318  1  0.39352904  0.22689591  0.93667145  1
  N  N319  1  0.41132673  0.26108966  0.95252201  1
  C  C320  1  0.38809035  0.07569160  0.95628839  1
  Cu  Cu321  1  0.26968791  0.25984946  0.88397577  1
  C  C322  1  0.47223325  0.05383160  0.94389121  1
  Cu  Cu323  1  0.37625686  0.27603724  0.81896947  1
  O  O324  1  0.27286579  0.31597573  0.84392340  1
  N  N325  1  0.33613346  0.23525623  0.86552334  1
  C  C326  1  0.47052285  0.07937158  0.90452095  1
  O  O327  1  0.26939482  0.20038468  0.92070701  1
  C  C328  1  0.25412836  0.35344711  0.77589064  1
  C  C329  1  0.35196944  0.15055284  0.90918140  1
  C  C330  1  0.30407704  0.16069138  0.93227022  1
  O  O331  1  0.38117855  0.14909193  0.78206904  1
  H  H332  1  0.45891763  0.41587164  0.93736996  1
  O  O333  1  0.32109733  0.29741363  0.79183050  1
  O  O334  1  0.42993603  0.26288016  0.84749657  1
  C  C335  1  0.08314426  0.65659992  0.07016808  1
  C  C336  1  0.12173282  0.56446005  0.10425075  1
  C  C337  1  0.12230029  0.62096533  0.08067255  1
  N  N338  1  0.10002544  0.56434984  0.14239311  1
  C  C339  1  0.16880865  0.63350760  0.06702695  1
  N  N340  1  0.07754994  0.58050119  0.17315438  1
  H  H341  1  0.04655741  0.64369973  0.07651335  1
  C  C342  1  0.08903983  0.70763313  0.04544631  1
  N  N343  1  0.07136330  0.80678351  0.02966648  1
  H  H344  1  0.16279760  0.78988219  0.14144908  1
  N  N345  1  0.09633481  0.84982996  0.03776073  1
  O  O346  1  0.13694952  0.83783442  0.07885069  1
  C  C347  1  0.18921534  0.87482487  0.12841777  1
  C  C348  1  0.15949026  0.88127900  0.08939623  1
  C  C349  1  0.18705350  0.82297437  0.15117746  1
  C  C350  1  0.05382813  0.75250722  0.03193013  1
  C  C351  1  0.13610001  0.72498024  0.03534127  1
  C  C352  1  0.17525918  0.68717700  0.04440514  1
  C  C353  1  0.21690120  0.81773555  0.18648228  1
  C  C354  1  0.22001129  0.91980443  0.13952321  1
  O  O355  1  0.16566048  0.92688575  0.06759349  1
  H  H356  1  0.19744228  0.60333923  0.07199729  1
  Cu  Cu357  1  0.12104461  0.98267927  0.06631188  1
  O  O358  1  0.07497299  0.93379836  0.15899299  1
  N  N359  1  0.20053332  0.77849033  0.21383232  1
  O  O360  1  0.04159327  0.75868847  0.15688958  1
  C  C361  1  0.22364687  0.70224519  0.02843505  1
  H  H362  1  0.13972320  0.77032906  0.02288581  1
  O  O363  1  0.07822984  0.53594442  0.21717671  1
  H  H364  1  0.22155998  0.95591706  0.11728945  1
  O  O365  1  0.22981729  0.65529540  0.13287931  1
  C  C366  1  0.09189094  0.97945577  0.15235011  1
  O  O367  1  0.01723872  0.59318027  0.23602629  1
  C  C368  1  0.05142906  0.55611892  0.24440418  1
  H  H369  1  0.03176183  0.97848813  0.21530855  1
  C  C370  1  0.23610890  0.75607709  0.23642327  1
  O  O371  1  0.12194166  0.99483742  0.12297131  1
  C  C372  1  0.00465496  0.74860350  0.01560064  1
  Cu  Cu373  1  0.00308504  0.61107093  0.18077497  1
  C  C374  1  0.14541203  0.51074564  0.09302460  1
  H  H375  1  0.24749060  0.75514453  0.09252170  1
  H  H376  1  0.00485715  0.82990889  0.11011941  1
  C  C377  1  0.00287872  0.73940172  0.16346148  1
  N  N378  1  0.16202737  0.51072043  0.05494625  1
  H  H379  1  0.10866620  0.87299893  0.24374001  1
  N  N380  1  0.03010865  0.95899151  0.00239433  1
  O  O381  1  0.31760319  0.90562669  0.07546079  1
  C  C382  1  0.44959486  0.75275590  0.23692287  1
  N  N383  1  0.48492979  0.77891956  0.24031711  1
  H  H384  1  0.47493222  0.97762027  0.06446111  1
  C  C385  1  0.30463430  0.81450434  0.11292628  1
  C  C386  1  0.25324051  0.91232941  0.17211201  1
  C  C387  1  0.25589022  0.85999882  0.19767914  1
  N  N388  1  0.34405354  0.99642114  0.02284219  1
  O  O389  1  0.28466328  0.62755467  0.17892054  1
  O  O390  1  0.35220020  0.59094304  0.12043076  1
  C  C391  1  0.47328834  0.99894028  0.03328410  1
  C  C392  1  0.29133703  0.72249583  0.14434268  1
  O  O393  1  0.28426108  0.85675548  0.22704517  1
  N  N394  1  0.37953622  0.54151899  0.19192890  1
  N  N395  1  0.49260944  0.85974572  0.23239713  1
  C  C396  1  0.26465733  0.66547197  0.15158051  1
  H  H397  1  0.34009655  0.69815783  0.19331510  1
  C  C398  1  0.34160220  0.82778327  0.13894666  1
  C  C399  1  0.37516799  0.63819246  0.12576357  1
  O  O400  1  0.48062780  0.83085604  0.10045776  1
  O  O401  1  0.49345517  0.75184211  0.15653531  1
  O  O402  1  0.46389874  0.50959830  0.18294541  1
  C  C403  1  0.28239024  0.96287274  0.18070095  1
  C  C404  1  0.27645856  0.76320438  0.11513290  1
  H  H405  1  0.38577706  0.80284172  0.01325391  1
  N  N406  1  0.30915811  0.73451562  0.00315916  1
  H  H407  1  0.33181342  0.96157362  0.04434112  1
  O  O408  1  0.45130906  0.85208202  0.03968049  1
  H  H409  1  0.36454854  0.75035277  0.22913847  1
  C  C410  1  0.41208389  0.77429964  0.07037402  1
  H  H411  1  0.36226815  0.86980436  0.13792862  1
  N  N412  1  0.37822259  0.53683857  0.23047384  1
  C  C413  1  0.37786159  0.68435655  0.09575575  1
  C  C414  1  0.35842518  0.78412491  0.16706542  1
  C  C415  1  0.38120877  0.76880124  0.03790887  1
  C  C416  1  0.44852026  0.82477910  0.07057566  1
  C  C417  1  0.46245303  0.68580851  0.24661352  1
  O  O418  1  0.31040852  0.96303867  0.21207635  1
  H  H419  1  0.48099641  0.77524450  0.17662644  1
  C  C420  1  0.26332478  0.71463161  0.01678390  1
  H  H421  1  0.32356602  0.63829446  0.05714287  1
  H  H422  1  0.43223090  0.73441642  0.12750139  1
  O  O423  1  0.28147729  0.50784588  0.19882379  1
  Cu  Cu424  1  0.43837147  0.58120019  0.17149350  1
  O  O425  1  0.40278274  0.64433714  0.15668601  1
  N  N426  1  0.39864988  0.79926886  0.18802858  1
  O  O427  1  0.27001733  0.84214871  0.04820052  1
  C  C428  1  0.34606325  0.72338851  0.03420771  1
  C  C429  1  0.34502022  0.67897231  0.06236693  1
  H  H430  1  0.43686805  0.97735297  0.20120738  1
  C  C431  1  0.39629791  0.78049221  0.22564805  1
  H  H432  1  0.27258779  0.75970153  0.22368834  1
  C  C433  1  0.29689843  0.86023735  0.07715160  1
  C  C434  1  0.33011552  0.73310958  0.17089929  1
  Cu  Cu435  1  0.31358709  0.55617958  0.16217305  1
  C  C436  1  0.40963774  0.73073870  0.10052118  1
  Cu  Cu437  1  0.33848585  0.89858893  0.24045791  1
  C  C438  1  0.10804903  0.72273612  0.34034507  1
  N  N439  1  0.14596226  0.61298149  0.38030070  1
  C  C440  1  0.10192800  0.62454851  0.38133806  1
  C  C441  1  0.16323710  0.56702232  0.40322026  1
  C  C442  1  0.21143027  0.55526973  0.39452684  1
  C  C443  1  0.08127320  0.67442963  0.36252879  1
  H  H444  1  0.08392568  0.59150126  0.40026222  1
  C  C445  1  0.09047595  0.78063360  0.34043420  1
  C  C446  1  0.10668859  0.88501328  0.32616270  1
  C  C447  1  0.11845169  0.82031018  0.31784815  1
  C  C448  1  0.16173007  0.80076624  0.29912205  1
  C  C449  1  0.14769719  0.70129334  0.31732956  1
  N  N450  1  0.10318888  0.91966494  0.29348928  1
  H  H451  1  0.05921744  0.79371257  0.35742606  1
  C  C452  1  0.08942351  0.90749883  0.36486792  1
  H  H453  1  0.16138794  0.65458845  0.31487328  1
  N  N454  1  0.09034528  0.87268834  0.39718362  1
  C  C455  1  0.06642201  0.89437708  0.42932703  1
  C  C456  1  0.17642802  0.74265440  0.29778826  1
  H  H457  1  0.18390909  0.83406257  0.28262954  1
  H  H458  1  0.07808387  0.95418978  0.37131531  1
  H  H459  1  0.09947560  0.54167598  0.44199299  1
  C  C460  1  0.01920883  0.55589401  0.31414714  1
  N  N461  1  0.03424204  0.67482248  0.36411382  1
  C  C462  1  0.01801472  0.53847753  0.35661440  1
  C  C463  1  0.05247981  0.53284922  0.28678446  1
  C  C464  1  0.02896461  0.93484549  0.42903692  1
  C  C465  1  0.08480147  0.87094728  0.46737005  1
  N  N466  1  0.03031051  0.58914401  0.48861493  1
  C  C467  1  0.22407711  0.73285590  0.27571153  1
  H  H468  1  0.11272469  0.84033396  0.47013564  1
  C  C469  1  0.13654333  0.53263547  0.43186074  1
  H  H470  1  0.03263731  0.91097273  0.29199725  1
  N  N471  1  0.03528005  0.58555503  0.45038627  1
  C  C472  1  0.23372266  0.50917676  0.41471927  1
  H  H473  1  0.23427029  0.57887689  0.37235502  1
  H  H474  1  0.01467194  0.95000033  0.39826862  1
  C  C475  1  0.01179244  0.95375336  0.46789923  1
  N  N476  1  0.10502800  0.91539370  0.25426483  1
  O  O477  1  0.00476993  0.89923669  0.30630757  1
  Cu  Cu478  1  0.35552965  0.57924590  0.43081054  1
  C  C479  1  0.42736942  0.64330857  0.25574014  1
  C  C480  1  0.44719681  0.58578714  0.25937849  1
  C  C481  1  0.39355259  0.50684208  0.29807428  1
  C  C482  1  0.39648422  0.99590281  0.27492679  1
  O  O483  1  0.32302815  0.60052371  0.48323071  1
  C  C484  1  0.49539855  0.56895760  0.25785448  1
  N  N485  1  0.25911031  0.70723094  0.29724778  1
  H  H486  1  0.41355640  0.84609030  0.26624068  1
  O  O487  1  0.39334392  0.94233772  0.25633433  1
  H  H488  1  0.32304115  0.67520631  0.31260367  1
  O  O489  1  0.40529856  0.58066598  0.39798914  1
  N  N490  1  0.37665765  0.50637577  0.46778976  1
  C  C491  1  0.40827289  0.54065737  0.26346040  1
  N  N492  1  0.30213360  0.69451134  0.29003185  1
  O  O493  1  0.31747196  0.52762988  0.39708874  1
  H  H494  1  0.38908571  0.65352159  0.25854370  1
  H  H495  1  0.40399550  0.56314237  0.37231766  1
  O  O496  1  0.38142819  0.83230231  0.26165867  1
  O  O497  1  0.27680607  0.52566286  0.49363192  1
  C  C498  1  0.28742161  0.57691832  0.49976623  1
  Cu  Cu499  1  0.17404685  0.83980395  0.57034796  1
  O  O500  1  0.12153959  0.83140553  0.54074027  1
  O  O501  1  0.19873244  0.91481075  0.56879181  1
  C  C502  1  0.13238296  0.82209811  0.67823465  1
  H  H503  1  0.09600915  0.75147021  0.66612273  1
  N  N504  1  0.09303375  0.79464369  0.66097776  1
  C  C505  1  0.16234083  0.85490285  0.69168896  1
  C  C506  1  0.19943507  0.89351945  0.70715802  1
  N  N507  1  0.11330105  0.67579867  0.68999708  1
  C  C508  1  0.04632113  0.81571109  0.68067438  1
  C  C509  1  0.08645960  0.86772559  0.54344772  1
  N  N510  1  0.07043382  0.67126556  0.68286303  1
  N  N511  1  0.12690539  0.60896715  0.56044687  1
  C  C512  1  0.17554036  0.61781544  0.55720533  1
  H  H513  1  0.07710504  0.62476801  0.60102867  1
  C  C514  1  0.05125044  0.84941653  0.71709892  1
  O  O515  1  0.07075577  0.88568457  0.57852024  1
  Cu  Cu516  1  0.10194880  0.91336792  0.62616336  1
  N  N517  1  0.14068305  0.61223500  0.70892754  1
  C  C518  1  0.18849799  0.67183326  0.57735261  1
  C  C519  1  0.03782100  0.62939286  0.60033937  1
  H  H520  1  0.16162077  0.69734016  0.59745471  1
  O  O521  1  0.16122990  0.94890941  0.62434797  1
  C  C522  1  0.20775270  0.58690454  0.53019809  1
  H  H523  1  0.08617313  0.85261064  0.73250083  1
  C  C524  1  0.05129216  0.59723780  0.52639590  1
  C  C525  1  0.10328962  0.59375559  0.52753817  1
  C  C526  1  0.02348477  0.66751261  0.67593652  1
  C  C527  1  0.01961994  0.61470328  0.56098350  1
  O  O528  1  0.20896832  0.78668581  0.59903607  1
  C  C529  1  0.19340529  0.95169827  0.59727978  1
  N  N530  1  0.11048205  0.58123920  0.72633753  1
  H  H531  1  0.19858500  0.55405806  0.50924928  1
  C  C532  1  0.01124609  0.65287595  0.63250387  1
  H  H533  1  0.00886629  0.57013972  0.74004939  1
  C  C534  1  0.23284426  0.69249784  0.56800398  1
  C  C535  1  0.24590579  0.90039590  0.68836805  1
  C  C536  1  0.01059284  0.87772203  0.73198400  1
  C  C537  1  0.18567707  0.93164424  0.74021533  1
  C  C538  1  0.06765223  0.89286016  0.50441904  1
  C  C539  1  0.03164064  0.93600625  0.50472329  1
  H  H540  1  0.00235390  0.67757483  0.74488147  1
  O  O541  1  0.08149791  0.96779621  0.66581827  1
  H  H542  1  0.18067154  0.50440555  0.72992990  1
  C  C543  1  0.21362202  0.97935961  0.74950201  1
  C  C544  1  0.24362673  0.75425401  0.58242333  1
  C  C545  1  0.23055791  0.99831519  0.59944143  1
  H  H546  1  0.01592202  0.95170107  0.53304385  1
  C  C547  1  0.00296812  0.79893259  0.66224169  1
  C  C548  1  0.10776837  0.52991075  0.74846567  1
  H  H549  1  0.12754578  0.58295299  0.50255883  1
  C  C550  1  0.38798308  0.64429289  0.61681145  1
  C  C551  1  0.26739207  0.99619103  0.57070552  1
  H  H552  1  0.40587694  0.68304105  0.63034184  1
  H  H553  1  0.42948952  0.87814471  0.62070773  1
  C  C554  1  0.31632864  0.58159661  0.61238278  1
  H  H555  1  0.26935544  0.96031352  0.54869691  1
  Cu  Cu556  1  0.39605043  0.97808766  0.59989070  1
  C  C557  1  0.25267729  0.60940082  0.52603521  1
  C  C558  1  0.37724375  0.75242276  0.67827660  1
  C  C559  1  0.48915150  0.83693563  0.66323942  1
  H  H560  1  0.30133354  0.67941574  0.53916281  1
  H  H561  1  0.25759735  0.87389864  0.66190631  1
  C  C562  1  0.34105005  0.63017616  0.62909799  1
  Cu  Cu563  1  0.46063581  0.96773602  0.65755673  1
  C  C564  1  0.34174103  0.54630494  0.58443675  1
  N  N565  1  0.32000660  0.66624104  0.66134315  1
  C  C566  1  0.25659807  0.99155014  0.72864849  1
  O  O567  1  0.48034387  0.61023553  0.53796376  1
  C  C568  1  0.40890386  0.61113109  0.58457751  1
  H  H569  1  0.28013571  0.57099717  0.62164274  1
  O  O570  1  0.43627726  0.91793299  0.61714095  1
  N  N571  1  0.32024102  0.93097481  0.63902102  1
  H  H572  1  0.45867173  0.76168512  0.63080213  1
  C  C573  1  0.45427481  0.79532927  0.65721715  1
  C  C574  1  0.34992111  0.71287986  0.67142447  1
  C  C575  1  0.45584878  0.63433414  0.56989175  1
  O  O576  1  0.28431183  0.76886063  0.58141402  1
  C  C577  1  0.41039700  0.83746221  0.71932587  1
  C  C578  1  0.41331269  0.79904413  0.68474144  1
  C  C579  1  0.31238495  0.96765262  0.67096050  1
  C  C580  1  0.48952238  0.87233919  0.69886671  1
  C  C581  1  0.44993142  0.87259115  0.72677489  1
  O  O582  1  0.47067057  0.67603581  0.58738147  1
  C  C583  1  0.26581713  0.66304107  0.54393709  1
  N  N584  1  0.34797812  0.91749374  0.61037987  1
  H  H585  1  0.28531668  0.67921571  0.65672023  1
  H  H586  1  0.40593107  0.53412783  0.54556746  1
  C  C587  1  0.27212969  0.95077662  0.69816888  1
  C  C588  1  0.38751379  0.56077900  0.57027914  1
  H  H589  1  0.37974928  0.83533672  0.74117680  1
  C  C590  1  0.15397132  0.91460688  0.86186457  1
  C  C591  1  0.16722300  0.86093236  0.92460555  1
  C  C592  1  0.10406860  0.91657458  0.86897045  1
  C  C593  1  0.11641070  0.85324751  0.92787291  1
  H  H594  1  0.08110229  0.94431919  0.84627642  1
  C  C595  1  0.08648756  0.88366978  0.90199641  1
  C  C596  1  0.03449483  0.88112810  0.90478887  1
  N  N597  1  0.17467885  0.93265843  0.82662602  1
  H  H598  1  0.10204167  0.82330817  0.94999007  1
  C  C599  1  0.18654629  0.89171552  0.89260474  1
  C  C600  1  0.19869675  0.83587537  0.95865890  1
  O  O601  1  0.18062249  0.80947319  0.98785774  1
  O  O602  1  0.06014259  0.91718565  0.78378399  1
  H  H603  1  0.22416480  0.90011864  0.89028604  1
  N  N604  1  0.06744318  0.96682295  0.98651283  1
  O  O605  1  0.01557937  0.85355790  0.93480349  1
  C  C606  1  0.02024359  0.90974255  0.77316157  1
  O  O607  1  0.24361542  0.84321180  0.95577957  1
  O  O608  1  0.00860572  0.90884157  0.87854233  1
  C  C609  1  0.01687168  0.53664467  0.76389270  1
  C  C610  1  0.06325120  0.51522582  0.77280039  1
  C  C611  1  0.16445915  0.98569902  0.81461304  1
  H  H612  1  0.15335614  0.92278035  0.75991681  1
  C  C613  1  0.41353733  0.91910938  0.79189601  1
  C  C614  1  0.32273753  0.96295156  0.83464577  1
  C  C615  1  0.31705187  0.93492672  0.90749984  1
  N  N616  1  0.49389571  0.93969015  0.76856117  1
  Cu  Cu617  1  0.29186276  0.82785131  0.99424214  1
  O  O618  1  0.37184599  0.79298230  0.92882554  1
  C  C619  1  0.34896473  0.90907661  0.82899013  1
  C  C620  1  0.45104374  0.91359312  0.76164547  1
  O  O621  1  0.34377783  0.85882553  0.97124836  1
  C  C622  1  0.34277324  0.88399282  0.89977480  1
  N  N623  1  0.37057251  0.89675152  0.79218214  1
  H  H624  1  0.31258183  0.71054367  0.97645930  1
  H  H625  1  0.38158645  0.83004082  0.85623533  1
  H  H626  1  0.31513562  0.98884435  0.80776546  1
  C  C627  1  0.35485675  0.83976637  0.93370037  1
  H  H628  1  0.30287884  0.94827974  0.93792498  1
  C  C629  1  0.36179604  0.86968309  0.86093732  1
  H  H630  1  0.41882086  0.94568680  0.81934301  1
  C  C631  1  0.30767083  0.97189886  0.87424017  1
  O  O632  1  0.65083089  0.11903264  0.07183571  1
  C  C633  1  0.58494867  0.03739933  0.05292170  1
  C  C634  1  0.65996201  0.06665956  0.08631896  1
  H  H635  1  0.57768942  0.08309506  0.04279084  1
  C  C636  1  0.59708263  0.32952334  0.11080085  1
  C  C637  1  0.60119804  0.34070041  0.15224986  1
  C  C638  1  0.64341980  0.44182705  0.16086797  1
  H  H639  1  0.62482867  0.34761289  0.09075801  1
  C  C640  1  0.64475273  0.37770926  0.16910514  1
  C  C641  1  0.56575744  0.32390844  0.18109863  1
  H  H642  1  0.56142535  0.33875130  0.21351776  1
  C  C643  1  0.55535293  0.29725749  0.09481844  1
  O  O644  1  0.69724809  0.05070058  0.09930927  1
  Cu  Cu645  1  0.67868375  0.19040452  0.08950368  1
  O  O646  1  0.65163966  0.18129011  0.14141235  1
  H  H647  1  0.65283795  0.20210901  0.16573662  1
  N  N648  1  0.66312011  0.28001530  0.20169611  1
  N  N649  1  0.70094189  0.25617946  0.21038410  1
  O  O650  1  0.70533492  0.20001926  0.03721606  1
  N  N651  1  0.67615870  0.35201765  0.19029293  1
  H  H652  1  0.70009209  0.27850735  0.13830184  1
  O  O653  1  0.70421050  0.26114526  0.11111348  1
  N  N654  1  0.68942037  0.18743358  0.22762197  1
  H  H655  1  0.61310157  0.46532370  0.14706170  1
  C  C656  1  0.53169821  0.28070756  0.16714794  1
  C  C657  1  0.53884902  0.30992269  0.05083065  1
  C  C658  1  0.52582268  0.27023152  0.12318854  1
  H  H659  1  0.50942401  0.47174538  0.07627231  1
  N  N660  1  0.67414324  0.48017754  0.16481322  1
  C  C661  1  0.68482912  0.22387350  0.00605454  1
  O  O662  1  0.59397911  0.40406873  0.01224870  1
  C  C663  1  0.50445937  0.24907763  0.19929444  1
  H  H664  1  0.67597432  0.10622466  0.00521886  1
  C  C665  1  0.62621823  0.01878158  0.07274401  1
  H  H666  1  0.73245540  0.09220684  0.23337088  1
  H  H667  1  0.74557705  0.29399988  0.08728031  1
  O  O668  1  0.67707508  0.27456217  0.00330410  1
  O  O669  1  0.50260649  0.06765732  0.12285655  1
  N  N670  1  0.55701157  0.27807536  0.01894407  1
  H  H671  1  0.59010306  0.36090340  0.01462111  1
  N  N672  1  0.51406808  0.01393784  0.01687729  1
  C  C673  1  0.50413884  0.35399103  0.05707800  1
  O  O674  1  0.55849503  0.42461399  0.24730903  1
  O  O675  1  0.92932360  0.00011309  0.10453274  1
  C  C676  1  0.91164515  0.04512684  0.17948595  1
  O  O677  1  0.95562376  0.31112701  0.09899482  1
  C  C678  1  0.78787189  0.42750490  0.09146866  1
  H  H679  1  0.89344201  0.00694266  0.16599195  1
  O  O680  1  0.99350856  0.24041713  0.19747723  1
  C  C681  1  0.79435041  0.49001035  0.10169926  1
  O  O682  1  0.98911914  0.25183834  0.05490133  1
  C  C683  1  0.81000602  0.25734908  0.02212724  1
  O  O684  1  0.80957274  0.05491949  0.01577089  1
  C  C685  1  0.91742479  0.12330012  0.23028383  1
  C  C686  1  0.95187621  0.27688268  0.06878643  1
  Cu  Cu687  1  0.97635365  0.27803687  0.15240000  1
  H  H688  1  0.99708022  0.14728331  0.14859069  1
  H  H689  1  0.82500607  0.45391373  0.15739021  1
  C  C690  1  0.96467916  0.20617103  0.22103664  1
  C  C691  1  0.94589439  0.07125829  0.15536046  1
  N  N692  1  0.77994520  0.31596189  0.08397819  1
  N  N693  1  0.85743478  0.05463135  0.23974756  1
  C  C694  1  0.90226584  0.26878815  0.05379210  1
  C  C695  1  0.78751578  0.37569978  0.08583028  1
  C  C696  1  0.81414764  0.49357696  0.14030741  1
  H  H697  1  0.87222036  0.31502118  0.10544718  1
  O  O698  1  0.98650676  0.06490685  0.09172503  1
  C  C699  1  0.96787129  0.12427887  0.16668766  1
  O  O700  1  0.96232335  0.04452019  0.01369836  1
  C  C701  1  0.95517482  0.04372982  0.11519085  1
  C  C702  1  0.81896849  0.29067979  0.05904894  1
  C  C703  1  0.89325293  0.23667192  0.01709850  1
  C  C704  1  0.86531241  0.29571175  0.07472728  1
  C  C705  1  0.95116236  0.14910388  0.20264367  1
  C  C706  1  0.89402851  0.07165346  0.21651705  1
  C  C707  1  0.84221020  0.00331543  0.22775296  1
  H  H708  1  0.77231342  0.25635955  0.01178485  1
  C  C709  1  0.84706939  0.23086206  0.00175996  1
  C  C710  1  0.65984718  0.09593453  0.31777319  1
  H  H711  1  0.63708954  0.12474070  0.33670202  1
  C  C712  1  0.68392832  0.11711389  0.28279024  1
  C  C713  1  0.69830841  0.40898346  0.37882858  1
  H  H714  1  0.66987360  0.34159115  0.31809993  1
  N  N715  1  0.64756130  0.21793283  0.32839120  1
  C  C716  1  0.66459287  0.23094297  0.29097389  1
  Cu  Cu717  1  0.64984892  0.47527021  0.31612329  1
  C  C718  1  0.67723104  0.35145536  0.38539350  1
  C  C719  1  0.56874268  0.42638892  0.28293273  1
  C  C720  1  0.64880683  0.26226508  0.35462104  1
  O  O721  1  0.61356570  0.41509453  0.29657083  1
  C  C722  1  0.66638011  0.32039034  0.34902194  1
  C  C723  1  0.64172935  0.23988229  0.39683733  1
  H  H724  1  0.62436847  0.19702277  0.40013012  1
  C  C725  1  0.67083088  0.32801125  0.42528280  1
  H  H726  1  0.58795725  0.42313915  0.36685291  1
  C  C727  1  0.65275856  0.27274251  0.43119662  1
  N  N728  1  0.53856242  0.10200893  0.39287012  1
  H  H729  1  0.67709075  0.27734304  0.28618339  1
  N  N730  1  0.57279737  0.09680084  0.36940958  1
  C  C731  1  0.55178457  0.44203331  0.35912731  1
  H  H732  1  0.68512008  0.35506883  0.45082283  1
  O  O733  1  0.57740162  0.44958192  0.43836445  1
  C  C734  1  0.53563284  0.44260854  0.31780780  1
  C  C735  1  0.53606566  0.45978193  0.43435474  1
  C  C736  1  0.66847252  0.04115912  0.33350092  1
  H  H737  1  0.72168557  0.08642875  0.40139775  1
  O  O738  1  0.64034391  0.24927833  0.47357761  1
  O  O739  1  0.70046248  0.43165292  0.34289362  1
  O  O740  1  0.70668799  0.44024718  0.41056513  1
  N  N741  1  0.61170729  0.04713857  0.39405064  1
  C  C742  1  0.51913443  0.46349688  0.38984085  1
  C  C743  1  0.64648744  0.02871866  0.37860004  1
  C  C744  1  0.72292271  0.02325416  0.27836757  1
  C  C745  1  0.69561370  0.03799453  0.48428991  1
  C  C746  1  0.61786730  0.20483041  0.47217392  1
  H  H747  1  0.54811203  0.12660874  0.31456669  1
  O  O748  1  0.59644422  0.16241803  0.46889549  1
  C  C749  1  0.67949726  0.18028863  0.26579828  1
  H  H750  1  0.52326938  0.14916198  0.27541502  1
  O  O751  1  0.54611257  0.12313325  0.28400429  1
  O  O752  1  0.50551479  0.47274774  0.46381787  1
  H  H753  1  0.50381369  0.14553329  0.45494833  1
  O  O754  1  0.73795131  0.04005763  0.47637121  1
  O  O755  1  0.66302050  0.01354099  0.45846688  1
  H  H756  1  0.53517530  0.01726786  0.37907329  1
  C  C757  1  0.69896027  0.00134996  0.31413199  1
  C  C758  1  0.74793954  0.05879130  0.38612052  1
  C  C759  1  0.71239280  0.07976981  0.26129025  1
  O  O760  1  0.97310723  0.00170152  0.26750922  1
  H  H761  1  0.91062602  0.14155637  0.26184407  1
  O  O762  1  0.94971003  0.22650832  0.25295846  1
  O  O763  1  0.87658242  0.49298152  0.41483717  1
  O  O764  1  0.95535979  0.01982734  0.43447139  1
  O  O765  1  0.99311101  0.07403102  0.30754173  1
  O  O766  1  0.75529298  0.17403789  0.36570371  1
  O  O767  1  0.79939565  0.49032626  0.42207448  1
  C  C768  1  0.78727009  0.14426279  0.35149910  1
  H  H769  1  0.85180699  0.06458315  0.32486549  1
  H  H770  1  0.89589208  0.36309758  0.49067533  1
  O  O771  1  0.98090173  0.36266444  0.49821756  1
  C  C772  1  0.78380392  0.07641853  0.36013305  1
  O  O773  1  0.81010003  0.38726639  0.47007536  1
  C  C774  1  0.99933281  0.04891931  0.27573504  1
  C  C775  1  0.82124717  0.04566453  0.34355731  1
  O  O776  1  0.82185053  0.16602626  0.33275024  1
  Cu  Cu777  1  0.76762479  0.42066297  0.43534920  1
  C  C778  1  0.62955334  0.10465973  0.59460567  1
  H  H779  1  0.61085268  0.12194699  0.62197551  1
  C  C780  1  0.54819717  0.43472857  0.62800451  1
  H  H781  1  0.55784052  0.42918007  0.69985334  1
  C  C782  1  0.59574068  0.43894423  0.70726985  1
  C  C783  1  0.67920526  0.10337411  0.59124653  1
  C  C784  1  0.53077422  0.08470566  0.52952530  1
  N  N785  1  0.55356950  0.07087710  0.56254104  1
  C  C786  1  0.60380575  0.07848736  0.56096478  1
  O  O787  1  0.67602737  0.15040030  0.65883834  1
  N  N788  1  0.61733406  0.46028977  0.67518975  1
  C  C789  1  0.70289183  0.13087529  0.63012505  1
  C  C790  1  0.52617904  0.45657259  0.59069899  1
  C  C791  1  0.59140682  0.46845411  0.64119508  1
  C  C792  1  0.70393211  0.07869047  0.55768002  1
  C  C793  1  0.62640764  0.05774925  0.52568532  1
  O  O794  1  0.53067468  0.39476619  0.64870645  1
  C  C795  1  0.67704729  0.06286377  0.52330755  1
  N  N796  1  0.63473860  0.21294632  0.72024414  1
  H  H797  1  0.65317324  0.18014078  0.70104118  1
  O  O798  1  0.50914926  0.29087979  0.67201857  1
  C  C799  1  0.62009061  0.42627295  0.74520899  1
  H  H800  1  0.51005773  0.18596394  0.66631758  1
  C  C801  1  0.50914999  0.17677306  0.69908212  1
  C  C802  1  0.50593143  0.22171585  0.72828491  1
  C  C803  1  0.50212491  0.28399154  0.71224575  1
  O  O804  1  0.50644407  0.07970227  0.64535569  1
  H  H805  1  0.55682573  0.10799347  0.50870036  1
  Cu  Cu806  1  0.52367437  0.01971953  0.61151534  1
  N  N807  1  0.73397508  0.30293498  0.73804100  1
  C  C808  1  0.50345240  0.11879591  0.71336959  1
  H  H809  1  0.64000148  0.30612048  0.73684839  1
  H  H810  1  0.74329055  0.07725599  0.55613929  1
  H  H811  1  0.60594722  0.03969345  0.50010485  1
  O  O812  1  0.74574527  0.13584483  0.63109653  1
  H  H813  1  0.78729004  0.30649537  0.57900456  1
  C  C814  1  0.91210121  0.30611281  0.58710002  1
  O  O815  1  0.94901233  0.00471103  0.50163557  1
  C  C816  1  0.97967005  0.49777511  0.63115292  1
  O  O817  1  0.82086234  0.49421219  0.55057565  1
  C  C818  1  0.91185085  0.12077274  0.73492456  1
  H  H819  1  0.93349333  0.16723172  0.63651860  1
  O  O820  1  0.75803258  0.36200933  0.51870122  1
  C  C821  1  0.92145865  0.33102243  0.54878857  1
  N  N822  1  0.76141368  0.30997800  0.70822958  1
  C  C823  1  0.82511112  0.31694785  0.57328643  1
  C  C824  1  0.96139250  0.07400374  0.63707148  1
  C  C825  1  0.88526397  0.34808385  0.52169608  1
  O  O826  1  0.98750720  0.25965093  0.66392718  1
  C  C827  1  0.81467665  0.29808065  0.65436762  1
  N  N828  1  0.91735575  0.05118634  0.62951875  1
  C  C829  1  0.83861328  0.34609498  0.53690613  1
  C  C830  1  0.77136861  0.20168445  0.74840904  1
  C  C831  1  0.86383452  0.29933526  0.60013402  1
  C  C832  1  0.91566285  0.02735913  0.59300133  1
  H  H833  1  0.87086906  0.00252517  0.66265652  1
  C  C834  1  0.91996018  0.48590278  0.57527887  1
  H  H835  1  0.87668998  0.21746519  0.68798980  1
  C  C836  1  0.86252722  0.14764275  0.73275041  1
  C  C837  1  0.97268430  0.33794185  0.53452465  1
  C  C838  1  0.96648398  0.48012940  0.59107362  1
  H  H839  1  0.95084904  0.03399401  0.57595156  1
  C  C840  1  0.96414805  0.13713940  0.64195820  1
  H  H841  1  0.79718906  0.33262084  0.63592592  1
  C  C842  1  0.95286614  0.10476204  0.73831518  1
  N  N843  1  0.85346242  0.27870673  0.63822034  1
  H  H844  1  0.94023144  0.29414989  0.60957565  1
  C  C845  1  0.85210239  0.19705922  0.70885668  1
  H  H846  1  0.91457042  0.47294599  0.54141217  1
  C  C847  1  0.80810108  0.22197751  0.71819383  1
  C  C848  1  0.79673914  0.27327520  0.69290958  1
  C  C849  1  0.79882352  0.36567724  0.50829635  1
  C  C850  1  0.64680053  0.09373615  0.94324264  1
  C  C851  1  0.62797891  0.11963314  0.90825656  1
  H  H852  1  0.60883891  0.09537965  0.88425397  1
  H  H853  1  0.55679135  0.25639797  0.84784636  1
  C  C854  1  0.53719893  0.36633493  0.88009915  1
  C  C855  1  0.56522163  0.40744244  0.91222189  1
  C  C856  1  0.61786682  0.42369432  0.90986825  1
  C  C857  1  0.64537826  0.37553056  0.89375533  1
  H  H858  1  0.62777528  0.33395379  0.88482077  1
  C  C859  1  0.56576014  0.34936288  0.83819367  1
  C  C860  1  0.57201197  0.29202744  0.82744540  1
  N  N861  1  0.61759095  0.20627577  0.86530555  1
  C  C862  1  0.62069951  0.18027298  0.82954027  1
  H  H863  1  0.63483245  0.13552898  0.83219257  1
  C  C864  1  0.63147105  0.18115820  0.90096348  1
  C  C865  1  0.58054511  0.39468490  0.81012221  1
  C  C866  1  0.60192302  0.27777864  0.79354266  1
  C  C867  1  0.61316493  0.21387896  0.79264056  1
  N  N868  1  0.53944405  0.41934538  0.94111777  1
  H  H869  1  0.55033744  0.09286148  0.81820149  1
  N  N870  1  0.55072487  0.03815026  0.89709897  1
  H  H871  1  0.57703308  0.43958922  0.81732756  1
  C  C872  1  0.64859620  0.21620145  0.93550548  1
  H  H873  1  0.65215947  0.26398846  0.93296958  1
  C  C874  1  0.66553195  0.12765858  0.97594547  1
  C  C875  1  0.66253240  0.18765345  0.97050222  1
  C  C876  1  0.60361262  0.37761057  0.77268777  1
  C  C877  1  0.61858940  0.31834569  0.76380828  1
  C  C878  1  0.69461674  0.37968195  0.89809866  1
  O  O879  1  0.70057900  0.28762648  0.87137475  1
  N  N880  1  0.68898999  0.44815262  0.78642137  1
  C  C881  1  0.63945244  0.47272161  0.92632641  1
  H  H882  1  0.56125677  0.26076761  0.96129659  1
  N  N883  1  0.54336777  0.28802363  0.98070853  1
  H  H884  1  0.70415138  0.09923770  0.88572065  1
  C  C885  1  0.68846388  0.47979147  0.92462729  1
  O  O886  1  0.61180159  0.05625159  0.78809072  1
  C  C887  1  0.72333331  0.32497975  0.88554756  1
  C  C888  1  0.52042539  0.09757115  0.83889805  1
  N  N889  1  0.62881396  0.19188128  0.75586342  1
  C  C890  1  0.71571707  0.43304485  0.91004321  1
  N  N891  1  0.72779952  0.07359311  0.86972986  1
  C  C892  1  0.64798204  0.02881525  0.95042508  1
  H  H893  1  0.68777828  0.02928070  0.79027615  1
  C  C894  1  0.60049852  0.00759819  0.79879357  1
  H  H895  1  0.56768796  0.41463067  0.99805827  1
  C  C896  1  0.51328343  0.06925344  0.87954048  1
  C  C897  1  0.74332526  0.09896560  0.83310979  1
  N  N898  1  0.56689146  0.00062516  0.92040121  1
  O  O899  1  0.73644007  0.23329579  0.76004299  1
  C  C900  1  0.50101677  0.20988014  0.77022874  1
  N  N901  1  0.66299414  0.45239374  0.75527317  1
  H  H902  1  0.50467733  0.03010116  0.95224252  1
  C  C903  1  0.50087155  0.10162986  0.75423834  1
  O  O904  1  0.67190249  0.00934068  0.97772398  1
  O  O905  1  0.74066315  0.48922540  0.78388349  1
  C  C906  1  0.98953132  0.20001754  0.76212503  1
  N  N907  1  0.82763095  0.47453475  0.84910948  1
  O  O908  1  0.88174249  0.30942667  0.82886269  1
  C  C909  1  0.93164951  0.18502773  0.88089209  1
  Cu  Cu910  1  0.80148003  0.24944135  0.89131537  1
  H  H911  1  0.92506385  0.22032318  0.99886415  1
  H  H912  1  0.78290492  0.36019709  0.76789404  1
  H  H913  1  0.75613535  0.08231744  0.95521774  1
  H  H914  1  0.95515324  0.44920574  0.83468723  1
  N  N915  1  0.84867995  0.49518408  0.80107847  1
  H  H916  1  0.95908881  0.06404430  0.98910194  1
  C  C917  1  0.75789038  0.12103141  0.80087155  1
  H  H918  1  0.84114603  0.08427507  0.77656355  1
  N  N919  1  0.80499708  0.42853958  0.84834494  1
  C  C920  1  0.83409914  0.03006760  0.99162312  1
  C  C921  1  0.81875157  0.02585254  0.94683906  1
  H  H922  1  0.78604303  0.01050206  0.83276136  1
  O  O923  1  0.77032480  0.32246535  0.89069566  1
  C  C924  1  0.96579778  0.29962866  0.76168773  1
  N  N925  1  0.89260415  0.49531523  0.79541346  1
  O  O926  1  0.81343382  0.36637833  0.77893574  1
  C  C927  1  0.84152259  0.19523737  0.96353025  1
  C  C928  1  0.97522902  0.16952150  0.89734572  1
  C  C929  1  0.98418493  0.10749908  0.91445128  1
  C  C930  1  0.92828302  0.24312113  0.86818814  1
  C  C931  1  0.96486828  0.28366974  0.87001999  1
  C  C932  1  0.79840990  0.01701187  0.86362341  1
  H  H933  1  0.75413289  0.43607241  0.90826873  1
  H  H934  1  0.90043677  0.15685815  0.87741043  1
  H  H935  1  0.80702596  0.40773874  0.81758849  1
  O  O936  1  0.80269965  0.20770233  0.94092119  1
  C  C937  1  0.77903653  0.05780561  0.93334369  1
  C  C938  1  0.82947849  0.12049477  0.75741260  1
  H  H939  1  0.96070333  0.32677623  0.85670952  1
  O  O940  1  0.84612762  0.23045883  0.85273360  1
  C  C941  1  0.78400772  0.14650425  0.76576883  1
  Cu  Cu942  1  0.86907842  0.32599181  0.77296340  1
  O  O943  1  0.95208555  0.07245810  0.90973052  1
  C  C944  1  0.98610186  0.46940040  0.81961861  1
  O  O945  1  0.86874667  0.15803807  0.95556338  1
  H  H946  1  0.76485212  0.48408582  0.80851206  1
  C  C947  1  0.88272637  0.26011775  0.84837113  1
  C  C948  1  0.77036573  0.05010276  0.89132757  1
  O  O949  1  0.97606036  0.34877154  0.76478034  1
  H  H950  1  0.94881931  0.19669979  0.75647358  1
  O  O951  1  0.92060691  0.28356538  0.75644459  1
  C  C952  1  0.66422297  0.66033786  0.15149675  1
  C  C953  1  0.62112299  0.62744847  0.14681053  1
  C  C954  1  0.60775965  0.85646607  0.08432118  1
  O  O955  1  0.64495033  0.84397944  0.09919390  1
  H  H956  1  0.66622396  0.70813942  0.14556593  1
  C  C957  1  0.63104356  0.92072130  0.21727786  1
  O  O958  1  0.58507743  0.92867348  0.22383095  1
  C  C959  1  0.70230153  0.63084909  0.16624232  1
  Cu  Cu960  1  0.54049608  0.95118084  0.18644599  1
  C  C961  1  0.56096830  0.93374328  0.05213564  1
  C  C962  1  0.60033558  0.91945753  0.07461267  1
  C  C963  1  0.70531641  0.57084848  0.16892169  1
  C  C964  1  0.58007044  0.66290682  0.13320916  1
  O  O965  1  0.58228117  0.72120778  0.13128792  1
  O  O966  1  0.54404078  0.63626439  0.12712331  1
  Cu  Cu967  1  0.53446113  0.78016181  0.11719700  1
  C  C968  1  0.61948185  0.56495334  0.14853358  1
  C  C969  1  0.66337020  0.53762721  0.15920270  1
  H  H970  1  0.58672767  0.53822689  0.14127253  1
  H  H971  1  0.66676648  0.94750911  0.10225287  1
  C  C972  1  0.63593492  0.96031702  0.08224035  1
  O  O973  1  0.57266143  0.81792645  0.07642279  1
  O  O974  1  0.65861616  0.95549730  0.20638955  1
  H  H975  1  0.53461379  0.89996316  0.04359666  1
  C  C976  1  0.64776787  0.85916213  0.23106161  1
  C  C977  1  0.55170216  0.99390858  0.04015072  1
  H  H978  1  0.73805051  0.54659652  0.17807439  1
  O  O979  1  0.74814326  0.71693144  0.15738516  1
  H  H980  1  0.57288812  0.83353995  0.23317809  1
  C  C981  1  0.74977260  0.66828563  0.17359376  1
  H  H982  1  0.72073551  0.89136002  0.23295929  1
  C  C983  1  0.69719493  0.85396959  0.23574183  1
  H  H984  1  0.53297808  0.71126054  0.24197270  1
  C  C985  1  0.61134252  0.82093594  0.23706305  1
  N  N986  1  0.51123625  0.87211145  0.20005720  1
  C  C987  1  0.51111904  0.67235057  0.24455176  1
  O  O988  1  0.52945592  0.50015854  0.14438478  1
  O  O989  1  0.50081970  0.97911657  0.14805170  1
  H  H990  1  0.65254065  0.66612593  0.24591144  1
  C  C991  1  0.61340428  0.66748029  0.24640670  1
  N  N992  1  0.59777927  0.71972310  0.24419424  1
  C  C993  1  0.62922048  0.76406241  0.24650039  1
  N  N994  1  0.98113494  0.79218969  0.00322750  1
  H  H995  1  0.86042605  0.98659179  0.20023646  1
  C  C996  1  0.79671392  0.99217538  0.24429002  1
  N  N997  1  0.84718332  0.70499729  0.10260553  1
  H  H998  1  0.83395514  0.64568207  0.13471580  1
  C  C999  1  0.82964561  0.55040564  0.15193960  1
  C  C1000  1  0.95516029  0.58800730  0.10545338  1
  C  C1001  1  0.79861598  0.59106508  0.08638433  1
  C  C1002  1  0.93139324  0.82738840  0.08682920  1
  O  O1003  1  0.78004389  0.65509770  0.19879823  1
  O  O1004  1  0.97730624  0.88936071  0.05085014  1
  C  C1005  1  0.97030786  0.80696478  0.10963809  1
  C  C1006  1  0.96191870  0.75718918  0.13432989  1
  C  C1007  1  0.97500044  0.69081130  0.01829437  1
  O  O1008  1  0.99231283  0.69811037  0.18850849  1
  N  N1009  1  0.77915129  0.64300610  0.02567670  1
  O  O1010  1  0.76004413  0.52368780  0.03843623  1
  O  O1011  1  0.98490381  0.62014179  0.13026300  1
  H  H1012  1  0.99314021  0.69050029  0.08312009  1
  C  C1013  1  0.82667315  0.70069633  0.06786715  1
  O  O1014  1  0.87109294  0.99759996  0.00222147  1
  Cu  Cu1015  1  0.90098318  0.99421881  0.05142943  1
  H  H1016  1  0.89860672  0.55085857  0.04250553  1
  C  C1017  1  0.82213941  0.59967706  0.12473579  1
  C  C1018  1  0.95068017  0.61445654  0.06360845  1
  C  C1019  1  0.78029779  0.53518242  0.07151213  1
  O  O1020  1  0.93819545  0.54384762  0.11913195  1
  C  C1021  1  0.97487025  0.66750424  0.05796514  1
  C  C1022  1  0.80015832  0.64624591  0.06169376  1
  C  C1023  1  0.87442789  0.56590929  0.22531209  1
  C  C1024  1  0.85367178  0.56184802  0.19151879  1
  H  H1025  1  0.83077156  0.68493281  0.22698891  1
  H  H1026  1  0.84027696  0.73107368  0.04314556  1
  C  C1027  1  0.88926173  0.79838891  0.08334947  1
  C  C1028  1  0.93523024  0.87940663  0.06225970  1
  O  O1029  1  0.90031417  0.91208687  0.05672359  1
  C  C1030  1  0.92128839  0.58732454  0.03322786  1
  C  C1031  1  0.92024958  0.72712858  0.13487456  1
  H  H1032  1  0.86089269  0.81624106  0.06563957  1
  O  O1033  1  0.85383590  0.69505276  0.24867645  1
  C  C1034  1  0.88402612  0.74473198  0.10591953  1
  H  H1035  1  0.91569648  0.68792576  0.15437374  1
  H  H1036  1  0.79066193  0.58850853  0.24700523  1
  O  O1037  1  0.69804195  0.65530259  0.41614815  1
  H  H1038  1  0.65116328  0.94897899  0.42560308  1
  N  N1039  1  0.71427797  0.96416987  0.40544206  1
  O  O1040  1  0.67092229  0.77653378  0.37305592  1
  C  C1041  1  0.69676880  0.80788365  0.39356893  1
  C  C1042  1  0.71402513  0.56550511  0.29979085  1
  O  O1043  1  0.71461995  0.59115934  0.46531641  1
  C  C1044  1  0.67971798  0.82508708  0.44134099  1
  H  H1045  1  0.62940178  0.75424613  0.43538265  1
  C  C1046  1  0.70059090  0.86582326  0.46644436  1
  C  C1047  1  0.64243887  0.79007992  0.45417400  1
  H  H1048  1  0.71252197  0.96187009  0.32889504  1
  O  O1049  1  0.68834181  0.54242581  0.32867617  1
  C  C1050  1  0.72647731  0.63286544  0.43841087  1
  C  C1051  1  0.52858339  0.61485310  0.25057343  1
  C  C1052  1  0.74826458  0.99802823  0.38819653  1
  H  H1053  1  0.73640608  0.88701926  0.45780952  1
  H  H1054  1  0.69259315  0.71378148  0.27509639  1
  C  C1055  1  0.67877819  0.75537164  0.25845302  1
  C  C1056  1  0.58175212  0.61854426  0.25022035  1
  O  O1057  1  0.50735227  0.99172219  0.37270523  1
  N  N1058  1  0.63962061  0.53671905  0.26492616  1
  O  O1059  1  0.69568602  0.57458322  0.26511872  1
  C  C1060  1  0.71158851  0.79881924  0.25174157  1
  N  N1061  1  0.60474370  0.56863672  0.25831674  1
  O  O1062  1  0.73255480  0.83290948  0.38107053  1
  H  H1063  1  0.50833707  0.52431245  0.25895742  1
  O  O1064  1  0.57156680  0.71170778  0.49710561  1
  C  C1065  1  0.62113900  0.79967748  0.49305443  1
  C  C1066  1  0.67343905  0.98476254  0.41147823  1
  H  H1067  1  0.75146826  0.53169229  0.37039080  1
  C  C1068  1  0.98577222  0.56864231  0.38557045  1
  C  C1069  1  0.82221020  0.98499257  0.35148423  1
  H  H1070  1  0.99405315  0.69378841  0.42486986  1
  O  O1071  1  0.98496401  0.69747463  0.45282868  1
  O  O1072  1  0.98508195  0.55717972  0.42463383  1
  H  H1073  1  0.89772063  0.54586997  0.34220509  1
  C  C1074  1  0.80522315  0.63457274  0.47424129  1
  C  C1075  1  0.76387946  0.79623353  0.26302044  1
  H  H1076  1  0.99931348  0.59243973  0.30201900  1
  H  H1077  1  0.78320066  0.91309727  0.38036735  1
  C  C1078  1  0.84859850  0.70388667  0.41538310  1
  C  C1079  1  0.83780331  0.50218346  0.40157911  1
  O  O1080  1  0.79280795  0.83179576  0.25539914  1
  O  O1081  1  0.86776301  0.89857478  0.33915392  1
  C  C1082  1  0.96865279  0.99649866  0.46561520  1
  O  O1083  1  0.90792961  0.76369158  0.38597203  1
  C  C1084  1  0.82576687  0.53031748  0.35870945  1
  H  H1085  1  0.77763199  0.70436545  0.38363206  1
  C  C1086  1  0.84950579  0.56283290  0.28908314  1
  N  N1087  1  0.99012525  0.67801234  0.36473660  1
  Cu  Cu1088  1  0.95305835  0.94161629  0.30705522  1
  C  C1089  1  0.79904119  0.68934539  0.41138315  1
  C  C1090  1  0.86307160  0.94911471  0.33578827  1
  C  C1091  1  0.80138688  0.57270931  0.27826840  1
  C  C1092  1  0.76511448  0.56301288  0.30864569  1
  H  H1093  1  0.79344805  0.60078325  0.49663294  1
  O  O1094  1  0.89737680  0.98012606  0.31629136  1
  C  C1095  1  0.87777623  0.68533762  0.44579579  1
  O  O1096  1  0.96088557  0.61000939  0.37145391  1
  C  C1097  1  0.78496511  0.96046572  0.37429223  1
  C  C1098  1  0.86090779  0.54662992  0.33173098  1
  H  H1099  1  0.91658462  0.69442321  0.44687966  1
  H  H1100  1  0.99437348  0.65853589  0.46253828  1
  O  O1101  1  0.77586452  0.74332428  0.27686672  1
  C  C1102  1  0.77841543  0.54056453  0.34770720  1
  Cu  Cu1103  1  0.83890268  0.72781755  0.29888161  1
  C  C1104  1  0.86914083  0.74320911  0.38177177  1
  C  C1105  1  0.85343462  0.65431208  0.47731166  1
  C  C1106  1  0.77763996  0.65245990  0.44053532  1
  O  O1107  1  0.84049405  0.75627141  0.35212305  1
  N  N1108  1  0.88723293  0.56538237  0.26252514  1
  N  N1109  1  0.76059403  0.99014635  0.26046287  1
  C  C1110  1  0.69093548  0.67224036  0.64246024  1
  C  C1111  1  0.71574173  0.68383039  0.57010744  1
  C  C1112  1  0.68015294  0.69500559  0.60255908  1
  C  C1113  1  0.63861728  0.72369533  0.59602746  1
  C  C1114  1  0.60409591  0.57683369  0.55588988  1
  O  O1115  1  0.64701374  0.59161276  0.56260128  1
  H  H1116  1  0.63133909  0.74856162  0.56756277  1
  H  H1117  1  0.60471103  0.82049452  0.60766324  1
  H  H1118  1  0.61426066  0.85977734  0.54652903  1
  C  C1119  1  0.63383653  0.84884657  0.51665527  1
  N  N1120  1  0.70738214  0.90240880  0.53500490  1
  C  C1121  1  0.68147423  0.92690445  0.56362933  1
  H  H1122  1  0.64265466  0.92805857  0.55410668  1
  C  C1123  1  0.57019968  0.80760172  0.62055595  1
  C  C1124  1  0.60482263  0.72514558  0.63027524  1
  N  N1125  1  0.56332346  0.75366872  0.63018910  1
  N  N1126  1  0.55190126  0.89888344  0.63340130  1
  C  C1127  1  0.53584451  0.84657136  0.63882734  1
  O  O1128  1  0.57865708  0.59749111  0.52649067  1
  C  C1129  1  0.61174944  0.69339158  0.66798756  1
  C  C1130  1  0.65616158  0.66991206  0.67406141  1
  H  H1131  1  0.58366502  0.68771233  0.69144740  1
  O  O1132  1  0.70864251  0.60535713  0.71264086  1
  C  C1133  1  0.66582813  0.63060605  0.71132761  1
  H  H1134  1  0.64108885  0.54244520  0.62958190  1
  C  C1135  1  0.58739533  0.52980618  0.58289251  1
  H  H1136  1  0.72096736  0.96294783  0.68065094  1
  C  C1137  1  0.69878862  0.95052472  0.60183305  1
  O  O1138  1  0.54932591  0.78693879  0.53468672  1
  N  N1139  1  0.56940380  0.94805489  0.62735427  1
  H  H1140  1  0.52236809  0.89581795  0.70672154  1
  N  N1141  1  0.66444189  0.95908229  0.63162464  1
  Cu  Cu1142  1  0.53020151  0.65840013  0.52171084  1
  N  N1143  1  0.62691090  0.96292744  0.65084605  1
  O  O1144  1  0.70422801  0.67120392  0.53312830  1
  C  C1145  1  0.57696304  0.76651928  0.51081738  1
  H  H1146  1  0.52892984  0.51803119  0.53957932  1
  O  O1147  1  0.63604412  0.62182479  0.73674362  1
  H  H1148  1  0.72675863  0.65646553  0.65029131  1
  C  C1149  1  0.67924208  0.87500948  0.50681371  1
  C  C1150  1  0.61243282  0.51440784  0.61879964  1
  N  N1151  1  0.74701405  0.56813595  0.54572485  1
  Cu  Cu1152  1  0.68382145  0.59662114  0.51725815  1
  H  H1153  1  0.72696468  0.96939419  0.73832965  1
  C  C1154  1  0.74810734  0.95904584  0.61826145  1
  C  C1155  1  0.54784482  0.50111513  0.56728664  1
  Cu  Cu1156  1  0.72960076  0.54895119  0.74774239  1
  C  C1157  1  0.75450504  0.96779562  0.66222480  1
  H  H1158  1  0.78323404  0.95713818  0.55668974  1
  C  C1159  1  0.91490831  0.51660164  0.72453103  1
  H  H1160  1  0.99886221  0.76809902  0.63669846  1
  C  C1161  1  0.78667137  0.96423617  0.59068194  1
  C  C1162  1  0.83125884  0.98371078  0.60622917  1
  C  C1163  1  0.79926381  0.98315530  0.67857249  1
  H  H1164  1  0.87786926  0.51339760  0.71237267  1
  C  C1165  1  0.88446973  0.50797973  0.60028262  1
  N  N1166  1  0.76678059  0.52945801  0.52752181  1
  N  N1167  1  0.89330397  0.97421599  0.50521660  1
  H  H1168  1  0.86584897  0.54376868  0.65899948  1
  Cu  Cu1169  1  0.77902270  0.60557594  0.59679282  1
  C  C1170  1  0.83571206  0.51236445  0.58302284  1
  O  O1171  1  0.87751370  0.83587953  0.68343125  1
  N  N1172  1  0.84919411  0.98075711  0.74218844  1
  C  C1173  1  0.96810091  0.61551234  0.55349447  1
  H  H1174  1  0.82252472  0.66403711  0.54721793  1
  O  O1175  1  0.91204615  0.77389692  0.63983611  1
  H  H1176  1  0.82052830  0.65650042  0.66514912  1
  C  C1177  1  0.85685756  0.64357750  0.54785440  1
  N  N1178  1  0.87714022  0.63561106  0.51251283  1
  O  O1179  1  0.80399256  0.53614553  0.60870931  1
  H  H1180  1  0.94159889  0.67525291  0.64972714  1
  C  C1181  1  0.91373119  0.81022986  0.66684506  1
  H  H1182  1  0.86813426  0.61643425  0.71543902  1
  C  C1183  1  0.80490194  0.98134953  0.72489922  1
  C  C1184  1  0.96574516  0.86395019  0.71507601  1
  O  O1185  1  0.82903302  0.73768039  0.68483518  1
  H  H1186  1  0.93058615  0.88043425  0.72799936  1
  N  N1187  1  0.87369161  0.64984629  0.62357042  1
  N  N1188  1  0.82944257  0.64329564  0.63495607  1
  C  C1189  1  0.94092134  0.64008943  0.58585164  1
  N  N1190  1  0.95077812  0.51773619  0.69776497  1
  O  O1191  1  0.75795739  0.68059480  0.58160063  1
  C  C1192  1  0.89484314  0.52501740  0.64046733  1
  H  H1193  1  0.95245138  0.59870096  0.52617110  1
  C  C1194  1  0.96300496  0.82737879  0.68059670  1
  N  N1195  1  0.87430857  0.98045898  0.53959210  1
  N  N1196  1  0.94675543  0.68111579  0.70423213  1
  C  C1197  1  0.88843471  0.64092897  0.58285678  1
  C  C1198  1  0.83713346  0.99216008  0.64990494  1
  H  H1199  1  0.84102318  0.73287885  0.65730302  1
  C  C1200  1  0.91861582  0.68612810  0.73689078  1
  Cu  Cu1201  1  0.83514367  0.79436900  0.72002865  1
  C  C1202  1  0.96182103  0.65758463  0.62339563  1
  C  C1203  1  0.94182710  0.51701223  0.65727783  1
  C  C1204  1  0.99256687  0.67675773  0.71209597  1
  H  H1205  1  0.99883634  0.98747974  0.64490854  1
  C  C1206  1  0.87314535  0.99715741  0.57986334  1
  C  C1207  1  0.87864039  0.65014982  0.73751283  1
  C  C1208  1  0.63113297  0.90480681  0.82088110  1
  H  H1209  1  0.59441655  0.88743426  0.82625923  1
  C  C1210  1  0.66861581  0.86590032  0.82796347  1
  O  O1211  1  0.61569027  0.79074910  0.85215826  1
  C  C1212  1  0.65700274  0.80450890  0.84704676  1
  C  C1213  1  0.71528112  0.88147510  0.82206929  1
  C  C1214  1  0.71995258  0.93850048  0.80416729  1
  C  C1215  1  0.63823813  0.96183083  0.80747584  1
  O  O1216  1  0.69157857  0.77626946  0.85884791  1
  O  O1217  1  0.69311881  0.57177149  0.95702427  1
  N  N1218  1  0.53565638  0.95566713  0.76544883  1
  C  C1219  1  0.68319191  0.98148315  0.79776357  1
  O  O1220  1  0.62827028  0.99668778  0.92166077  1
  O  O1221  1  0.55751788  0.99299174  0.80900337  1
  H  H1222  1  0.61656722  0.50692703  0.93890384  1
  C  C1223  1  0.71503146  0.53197894  0.94213900  1
  H  H1224  1  0.74508237  0.85377201  0.83106864  1
  H  H1225  1  0.73823280  0.62736956  0.97493639  1
  Cu  Cu1226  1  0.99984906  0.87630396  0.99712374  1
  C  C1227  1  0.76237223  0.97073271  0.75008190  1
  H  H1228  1  0.84126351  0.88846161  0.75334199  1
  C  C1229  1  0.83917138  0.98747327  0.87822875  1
  C  C1230  1  0.84793147  0.99280262  0.92061120  1
  C  C1231  1  0.80721135  0.61992974  0.77976266  1
  C  C1232  1  0.86343425  0.69241122  0.80728208  1
  O  O1233  1  0.98175515  0.92604690  0.79238061  1
  Cu  Cu1234  1  0.80130183  0.52063740  0.98720665  1
  O  O1235  1  0.85350713  0.94288598  0.81612559  1
  O  O1236  1  0.95098738  0.81227624  0.82483488  1
  O  O1237  1  0.88149865  0.60198847  0.92907785  1
  C  C1238  1  0.85189877  0.65614308  0.77404108  1
  N  N1239  1  0.87751401  0.97870897  0.77169170  1
  C  C1240  1  0.91571472  0.77839075  0.83504514  1
  O  O1241  1  0.89798720  0.77938563  0.86888206  1
  C  C1242  1  0.87140713  0.95448439  0.85090250  1
  C  C1243  1  0.92091069  0.61152222  0.99364466  1
  Cu  Cu1244  1  0.95714408  0.89307342  0.83981196  1
  O  O1245  1  0.78438283  0.63065980  0.81140313  1
  C  C1246  1  0.94988920  0.66126505  0.98723468  1
  H  H1247  1  0.94637447  0.78496633  0.99761269  1
  C  C1248  1  0.88688830  0.58335393  0.96315552  1
  C  C1249  1  0.90323959  0.73015473  0.80364004  1
  H  H1250  1  0.95927845  0.75941132  0.76149466  1
  O  O1251  1  0.76169486  0.53201010  0.94259414  1
  C  C1252  1  0.92953878  0.72981822  0.76787620  1
  O  O1253  1  0.86344678  0.53678780  0.97555800  1
  O  O1254  1  0.90658221  0.92869598  0.86547166  1
  H  H1255  1  0.88115298  0.97484858  0.93290980  1
  H  H1256  1  0.94663276  0.67973703  0.95304273  1
  H  H1257  1  0.83977925  0.69465018  0.83457548  1
  N  N1258  1  0.76387454  0.94914515  0.78618693  1
  O  O1259  1  0.78823328  0.58638229  0.75195667  1
  O  O1260  1  0.82901273  0.84954551  0.75251618  1
  C  C1261  1  0.97771283  0.50513031  0.78471690  1
  C  C1262  1  0.92808289  0.50684097  0.76688896  1
  N  N1263  1  0.76316166  0.65478666  0.99031180  1
