# generated using pymatgen
data_Cu4H32C48N4O9
_symmetry_space_group_name_H-M   'P 1'
_cell_length_a   11.38590800
_cell_length_b   43.94106612
_cell_length_c   31.09523805
_cell_angle_alpha   90.00000000
_cell_angle_beta   90.00000000
_cell_angle_gamma   90.00000000
_symmetry_Int_Tables_number   1
_chemical_formula_structural   Cu4H32C48N4O9
_chemical_formula_sum   'Cu64 H512 C768 N64 O144'
_cell_volume   15557.22547066
_cell_formula_units_Z   16
loop_
 _symmetry_equiv_pos_site_id
 _symmetry_equiv_pos_as_xyz
  1  'x, y, z'
loop_
 _atom_site_type_symbol
 _atom_site_label
 _atom_site_symmetry_multiplicity
 _atom_site_fract_x
 _atom_site_fract_y
 _atom_site_fract_z
 _atom_site_occupancy
  N  N0  1  0.43848336  0.03081841  0.06920691  1
  C  C1  1  0.05697455  0.02581198  0.07737870  1
  H  H2  1  0.88011670  0.03202205  0.10633272  1
  C  C3  1  0.96311973  0.04233065  0.09315336  1
  C  C4  1  0.95497003  0.07375368  0.08568428  1
  C  C5  1  0.59281909  0.06631116  0.04839677  1
  H  H6  1  0.88110870  0.08671529  0.09453869  1
  C  C7  1  0.54383631  0.03671104  0.05130548  1
  C  C8  1  0.53679759  0.09161895  0.06787329  1
  H  H9  1  0.22925318  0.02684726  0.04598821  1
  C  C10  1  0.15280951  0.04038243  0.05602342  1
  C  C11  1  0.05458684  0.08744356  0.06609987  1
  H  H12  1  0.62987546  0.19494990  0.18581861  1
  C  C13  1  0.15517574  0.07105107  0.04895872  1
  C  C14  1  0.43160440  0.08446283  0.08980427  1
  C  C15  1  0.39023827  0.05465050  0.08884402  1
  H  H16  1  0.00062182  0.24320715  0.09574894  1
  C  C17  1  0.78513536  0.06052959  0.16492369  1
  Cu  Cu18  1  0.44229354  0.00961384  0.19941195  1
  H  H19  1  0.31613200  0.04870515  0.10754258  1
  H  H20  1  0.38269962  0.10115476  0.10913655  1
  H  H21  1  0.10747808  0.07912393  0.14134504  1
  H  H22  1  0.13454872  0.13783767  0.13332194  1
  C  C23  1  0.18157914  0.09420989  0.15417966  1
  C  C24  1  0.19771189  0.12504762  0.14920591  1
  N  N25  1  0.08761570  0.18299338  0.05643947  1
  H  H26  1  0.26218791  0.23250548  0.19969714  1
  C  C27  1  0.24729401  0.04539308  0.18406820  1
  C  C28  1  0.40733253  0.19096733  0.17923335  1
  H  H29  1  0.83194077  0.16208056  0.03920345  1
  O  O30  1  0.79496818  0.00635607  0.17165314  1
  N  N31  1  0.97017727  0.21311741  0.18946402  1
  H  H32  1  0.64084872  0.07588594  0.12458705  1
  O  O33  1  0.66823463  0.02588143  0.12579024  1
  H  H34  1  0.13037722  0.03477553  0.24148203  1
  H  H35  1  0.26477418  0.23148047  0.08506630  1
  H  H36  1  0.31204513  0.16407408  0.24183424  1
  C  C37  1  0.42989753  0.22049584  0.16641072  1
  C  C38  1  0.88723474  0.06798839  0.18780056  1
  O  O39  1  0.16912141  0.03433696  0.15946913  1
  C  C40  1  0.74932506  0.02956633  0.15314889  1
  H  H41  1  0.94124059  0.04970930  0.20158755  1
  C  C42  1  0.35742361  0.09215845  0.20139978  1
  C  C43  1  0.89425821  0.15427255  0.17676301  1
  C  C44  1  0.84979255  0.12126146  0.17234660  1
  C  C45  1  0.58203325  0.12439752  0.07084472  1
  C  C46  1  0.70029107  0.12914948  0.05662422  1
  H  H47  1  0.42935419  0.14261254  0.10725451  1
  C  C48  1  0.51245620  0.14783186  0.09063687  1
  H  H49  1  0.90955382  0.13085071  0.09785452  1
  H  H50  1  0.22691346  0.08354147  0.03069422  1
  H  H51  1  0.96024388  0.19029508  0.10088187  1
  H  H52  1  0.74528674  0.17555633  0.14471607  1
  C  C53  1  0.66095705  0.18727505  0.21890315  1
  C  C54  1  0.00262368  0.16083129  0.19769241  1
  C  C55  1  0.07408423  0.12188816  0.06388485  1
  C  C56  1  0.26618114  0.18713152  0.12385608  1
  O  O57  1  0.83150278  0.21558752  0.05815170  1
  C  C58  1  0.83513878  0.17956204  0.15719294  1
  H  H59  1  0.11041918  0.19870931  0.22714147  1
  H  H60  1  0.45357532  0.13498026  0.20809922  1
  C  C61  1  0.72556342  0.21305774  0.07254316  1
  C  C62  1  0.74370102  0.11334015  0.15099640  1
  C  C63  1  0.71470127  0.08336017  0.14516068  1
  C  C64  1  0.99018445  0.14019896  0.08519317  1
  H  H65  1  0.51604150  0.11544035  0.00274081  1
  N  N66  1  0.62716242  0.15809434  0.22127099  1
  H  H67  1  0.57094432  0.01520386  0.03759953  1
  H  H68  1  0.19528380  0.17619440  0.10601330  1
  H  H69  1  0.66725471  0.04090422  0.21283413  1
  C  C70  1  0.29851563  0.21744997  0.10962828  1
  C  C71  1  0.01362384  0.17198736  0.08483124  1
  H  H72  1  0.67232101  0.06859523  0.02966127  1
  C  C73  1  0.67567571  0.18223964  0.07284306  1
  C  C74  1  0.74643508  0.15852393  0.05473365  1
  H  H75  1  0.45364438  0.18176013  0.20923350  1
  C  C76  1  0.15939391  0.16548616  0.03247315  1
  H  H77  1  0.83146070  0.22980429  0.15865351  1
  C  C78  1  0.32289470  0.17209952  0.15788259  1
  H  H79  1  0.68958342  0.13232068  0.13772814  1
  H  H80  1  0.04621269  0.14142886  0.20955905  1
  C  C81  1  0.03775273  0.19115461  0.20420192  1
  C  C82  1  0.29696660  0.13913310  0.16924649  1
  N  N83  1  0.37954313  0.23304266  0.13115132  1
  H  H84  1  0.51353843  0.19548227  0.10480757  1
  C  C85  1  0.91789460  0.09800793  0.19224167  1
  C  C86  1  0.56447000  0.17716490  0.09114828  1
  O  O87  1  0.30263902  0.02908921  0.21122172  1
  C  C88  1  0.37868145  0.12241574  0.19407015  1
  O  O89  1  0.66426467  0.23701088  0.07672051  1
  C  C90  1  0.26054264  0.07805894  0.18029206  1
  C  C91  1  0.87840176  0.20881129  0.16428531  1
  H  H92  1  0.73695136  0.10952444  0.03741085  1
  H  H93  1  0.12124588  0.23705247  0.16162321  1
  H  H94  1  0.98318558  0.10503398  0.21449785  1
  H  H95  1  0.41250270  0.07861112  0.22165541  1
  C  C96  1  0.16772613  0.13407536  0.03894451  1
  H  H97  1  0.22949441  0.12091981  0.01811152  1
  C  C98  1  0.82108399  0.01309319  0.00010020  1
  H  H99  1  0.89745008  0.02255542  0.01824444  1
  H  H100  1  0.48783975  0.23750704  0.18088483  1
  H  H101  1  0.75040342  0.22582788  0.24723013  1
  H  H102  1  0.21707331  0.17950694  0.01159448  1
  Cu  Cu103  1  0.89497712  0.23860101  0.01170118  1
  C  C104  1  0.63099696  0.04378856  0.24540686  1
  H  H105  1  0.94145828  0.06567243  0.00369091  1
  H  H106  1  0.39487527  0.06761249  0.00652030  1
  H  H107  1  0.30144854  0.03560883  0.41216365  1
  H  H108  1  0.63124407  0.02045964  0.33029411  1
  C  C109  1  0.35577052  0.20047050  0.34221693  1
  C  C110  1  0.91388091  0.21127559  0.40223250  1
  C  C111  1  0.24514158  0.21515152  0.33783273  1
  C  C112  1  0.08914779  0.04210263  0.27052239  1
  C  C113  1  0.08671676  0.06997436  0.33594388  1
  C  C114  1  0.51402853  0.17701108  0.38738145  1
  H  H115  1  0.40526581  0.08318192  0.42634400  1
  C  C116  1  0.27196468  0.13648819  0.38040117  1
  C  C117  1  0.47515712  0.04077844  0.28713232  1
  H  H118  1  0.22218502  0.07431957  0.28409744  1
  C  C119  1  0.72001678  0.11466804  0.41821273  1
  H  H120  1  0.52482756  0.15970469  0.36064536  1
  C  C121  1  0.52606471  0.09864261  0.49675907  1
  C  C122  1  0.37898927  0.18141880  0.30550658  1
  H  H123  1  0.95110202  0.17702269  0.30515412  1
  C  C124  1  0.41828333  0.06344238  0.44762243  1
  H  H125  1  0.46062203  0.16809351  0.30871004  1
  C  C126  1  0.15693645  0.09070382  0.36424556  1
  H  H127  1  0.87398504  0.01679085  0.33528461  1
  C  C128  1  0.36378775  0.03557424  0.43776276  1
  H  H129  1  0.75629086  0.06277657  0.46329560  1
  C  C130  1  0.85106017  0.05596780  0.46811300  1
  C  C131  1  0.01530353  0.02215684  0.45491133  1
  O  O132  1  0.09954073  0.20739855  0.44037917  1
  H  H133  1  0.94541024  0.05488599  0.38381666  1
  C  C134  1  0.43049269  0.20062897  0.38206737  1
  C  C135  1  0.48417471  0.06851501  0.48564081  1
  H  H136  1  0.96261241  0.13106951  0.35471938  1
  C  C137  1  0.94605685  0.03051801  0.32490986  1
  C  C138  1  0.30354897  0.17951758  0.27017154  1
  O  O139  1  0.01407448  0.14779479  0.42052943  1
  C  C140  1  0.71603686  0.20270613  0.25207067  1
  C  C141  1  0.52307761  0.05737155  0.32119227  1
  H  H142  1  0.47568551  0.06330264  0.34966509  1
  C  C143  1  0.21643754  0.11781051  0.34965601  1
  H  H144  1  0.07329108  0.19293193  0.37082158  1
  H  H145  1  0.31543628  0.15800002  0.37535138  1
  C  C146  1  0.37192530  0.01163642  0.46750971  1
  C  C147  1  0.56276559  0.19709159  0.45556817  1
  C  C148  1  0.72707524  0.21357944  0.36474038  1
  C  C149  1  0.91650856  0.14113295  0.43542400  1
  N  N150  1  0.28055572  0.13012954  0.42292280  1
  H  H151  1  0.37009303  0.24540375  0.40751166  1
  Cu  Cu152  1  0.14815019  0.16306613  0.45171357  1
  O  O153  1  0.26151497  0.17767806  0.48497482  1
  O  O154  1  0.94775321  0.22708631  0.47404625  1
  H  H155  1  0.25205132  0.09971034  0.46848567  1
  H  H156  1  0.38435531  0.03029121  0.28152828  1
  O  O157  1  0.89094153  0.14296432  0.47450204  1
  C  C158  1  0.16050133  0.08697315  0.40927667  1
  C  C159  1  0.13912463  0.06459288  0.29586115  1
  C  C160  1  0.42204013  0.22468140  0.41233300  1
  C  C161  1  0.65122196  0.09743589  0.38951149  1
  C  C162  1  0.97572305  0.19767260  0.36842351  1
  H  H163  1  0.63938701  0.15475117  0.42694534  1
  O  O164  1  0.50326740  0.12004863  0.47099972  1
  H  H165  1  0.57368587  0.08601180  0.39814468  1
  C  C166  1  0.08310726  0.03876627  0.48326601  1
  C  C167  1  0.89417390  0.02940864  0.44650875  1
  C  C168  1  0.91158190  0.19056353  0.33092410  1
  C  C169  1  0.63523260  0.07126055  0.31390059  1
  Cu  Cu170  1  0.21361013  0.21783286  0.48088914  1
  C  C171  1  0.68695661  0.00860536  0.35415202  1
  C  C172  1  0.82588617  0.01050378  0.41449015  1
  H  H173  1  0.84021599  0.10412718  0.30341007  1
  C  C174  1  0.78911761  0.19800792  0.33130324  1
  C  C175  1  0.69451798  0.09221990  0.34559007  1
  C  C176  1  0.80337033  0.10558404  0.33656840  1
  C  C177  1  0.79120883  0.21844811  0.40184830  1
  C  C178  1  0.58154871  0.17379859  0.42352002  1
  C  C179  1  0.87646782  0.12207307  0.36425868  1
  C  C180  1  0.49014446  0.22240324  0.44867812  1
  C  C181  1  0.68754023  0.06378212  0.27307637  1
  H  H182  1  0.70779957  0.04773958  0.39342831  1
  C  C183  1  0.92097750  0.07367118  0.49461389  1
  H  H184  1  0.22364303  0.12572658  0.31746777  1
  H  H185  1  0.69431574  0.11914519  0.45219618  1
  C  C186  1  0.98302898  0.21714245  0.44092251  1
  C  C187  1  0.98456490  0.05348170  0.35056073  1
  C  C188  1  0.23215080  0.10473917  0.43619427  1
  H  H189  1  0.63689044  0.22249860  0.36096269  1
  C  C190  1  0.83350338  0.12496652  0.40546588  1
  H  H191  1  0.08375931  0.22192071  0.29421331  1
  H  H192  1  0.10645966  0.06743578  0.42030519  1
  C  C193  1  0.73676468  0.02408075  0.38851870  1
  Cu  Cu194  1  0.38067074  0.14802638  0.47586634  1
  C  C195  1  0.99507075  0.02356983  0.28305149  1
  H  H196  1  0.22116722  0.23048633  0.36420629  1
  H  H197  1  0.77279419  0.07666349  0.26704833  1
  H  H198  1  0.49192881  0.23793836  0.47634742  1
  C  C199  1  0.72609863  0.18773903  0.29062395  1
  C  C200  1  0.67995337  0.15805576  0.29594935  1
  H  H201  1  0.74930701  0.22942463  0.42965816  1
  C  C202  1  0.16935801  0.21086014  0.30149660  1
  H  H203  1  0.69102503  0.14510482  0.32803757  1
  H  H204  1  0.40807520  0.23019035  0.25850428  1
  C  C205  1  0.63979087  0.14341442  0.25829264  1
  C  C206  1  0.61763309  0.19349790  0.49793602  1
  N  N207  1  0.52926711  0.03011028  0.25158651  1
  N  N208  1  0.20632114  0.19745975  0.26696532  1
  O  O209  1  0.51297366  0.24902876  0.32429660  1
  H  H210  1  0.61773867  0.11912929  0.25595422  1
  H  H211  1  0.05005963  0.00150701  0.43978015  1
  H  H212  1  0.84950940  0.24986405  0.35100987  1
  H  H213  1  0.17134514  0.03030929  0.48890289  1
  Cu  Cu214  1  0.84546084  0.17955689  0.49976615  1
  C  C215  1  0.80919181  0.01480769  0.54927685  1
  C  C216  1  0.59180788  0.18694606  0.73297129  1
  H  H217  1  0.65958327  0.02189894  0.72917030  1
  C  C218  1  0.98570985  0.16087528  0.73503828  1
  C  C219  1  0.44555447  0.01527360  0.50510029  1
  C  C220  1  0.41528415  0.01949162  0.72239284  1
  C  C221  1  0.43332863  0.19695561  0.68172965  1
  O  O222  1  0.32728149  0.23073043  0.51809122  1
  C  C223  1  0.72477713  0.01595808  0.58319734  1
  O  O224  1  0.56971529  0.10519680  0.53279237  1
  C  C225  1  0.83804643  0.08242562  0.74304154  1
  H  H226  1  0.41214856  0.20204556  0.64763606  1
  C  C227  1  0.63255905  0.18758559  0.65328798  1
  C  C228  1  0.55036472  0.19001328  0.68994697  1
  H  H229  1  0.26734085  0.06165726  0.67841427  1
  O  O230  1  0.41948017  0.01253084  0.68173692  1
  C  C231  1  0.92795791  0.08655314  0.70687273  1
  C  C232  1  0.28186252  0.08028321  0.70294723  1
  C  C233  1  0.05453083  0.15526836  0.69886100  1
  H  H234  1  0.43487638  0.14602732  0.70525617  1
  O  O235  1  0.76646281  0.06810933  0.59198288  1
  O  O236  1  0.08120988  0.11111515  0.53974657  1
  H  H237  1  0.26135871  0.20724257  0.71318294  1
  C  C238  1  0.93368255  0.19025620  0.74261011  1
  O  O239  1  0.41870269  0.02077088  0.59247354  1
  Cu  Cu240  1  0.48456145  0.03894616  0.64027366  1
  Cu  Cu241  1  0.32393947  0.10927987  0.53756482  1
  C  C242  1  0.35812131  0.10363897  0.69131648  1
  O  O243  1  0.22100021  0.07693942  0.53341859  1
  H  H244  1  0.86298203  0.03522304  0.53972833  1
  H  H245  1  0.49156311  0.24886311  0.72525340  1
  O  O246  1  0.47351838  0.12096373  0.63370555  1
  O  O247  1  0.61626942  0.21403915  0.52660010  1
  O  O248  1  0.39362600  0.14874812  0.54092610  1
  O  O249  1  0.59907811  0.19382987  0.61548158  1
  C  C250  1  0.06678722  0.02762192  0.63025361  1
  O  O251  1  0.82175149  0.18385993  0.56277031  1
  H  H252  1  0.20393538  0.00176448  0.68510174  1
  C  C253  1  0.00245973  0.20868238  0.67476501  1
  C  C254  1  0.41298729  0.09926907  0.64776012  1
  O  O255  1  0.40580910  0.07538113  0.62583697  1
  O  O256  1  0.89347529  0.10602932  0.67799416  1
  O  O257  1  0.01609822  0.07233994  0.70276147  1
  C  C258  1  0.23294545  0.07944550  0.74368746  1
  H  H259  1  0.53827654  0.04710655  0.54613417  1
  C  C260  1  0.09836728  0.17497205  0.62476663  1
  Cu  Cu261  1  0.84742347  0.16921656  0.61772685  1
  O  O262  1  0.15069070  0.14966245  0.61923797  1
  C  C263  1  0.95423946  0.21463095  0.71381895  1
  Cu  Cu264  1  0.35812569  0.19027370  0.52888275  1
  Cu  Cu265  1  0.81832894  0.09339033  0.62833645  1
  H  H266  1  0.10576962  0.13383436  0.69409240  1
  H  H267  1  0.02418028  0.04928809  0.63278020  1
  C  C268  1  0.70869543  0.04548508  0.60462234  1
  C  C269  1  0.35313893  0.20030276  0.71620541  1
  Cu  Cu270  1  0.70036407  0.21254835  0.57618951  1
  Cu  Cu271  1  0.95236248  0.21181766  0.56578783  1
  H  H272  1  0.68581703  0.18076563  0.73890843  1
  C  C273  1  0.04983159  0.17927255  0.66694032  1
  O  O274  1  0.80235661  0.13073061  0.59712189  1
  C  C275  1  0.49452505  0.04368204  0.51444936  1
  O  O276  1  0.73713059  0.18131939  0.66060711  1
  Cu  Cu277  1  0.94100306  0.12096751  0.57146162  1
  O  O278  1  0.64432115  0.04655093  0.63783015  1
  C  C279  1  0.37489900  0.12977318  0.71780303  1
  H  H280  1  0.93973922  0.23826108  0.72157930  1
  O  O281  1  0.09006933  0.19504914  0.59373279  1
  Cu  Cu282  1  0.26790923  0.15063191  0.57969447  1
  Cu  Cu283  1  0.72319854  0.15192811  0.55364857  1
  H  H284  1  0.23433070  0.04470282  0.60671242  1
  C  C285  1  0.11302931  0.08500054  0.52914310  1
  H  H286  1  0.01345909  0.22665321  0.65003521  1
  Cu  Cu287  1  0.49868512  0.12923114  0.57661923  1
  H  H288  1  0.71721768  0.11669900  0.71844397  1
  H  H289  1  0.85407679  0.04049289  0.68182181  1
  C  C290  1  0.17960173  0.02559595  0.61299383  1
  O  O291  1  0.38862803  0.24869337  0.58291057  1
  C  C292  1  0.72796193  0.00801117  0.71037377  1
  C  C293  1  0.82656053  0.01640858  0.68711036  1
  C  C294  1  0.20142972  0.00473437  0.72054883  1
  C  C295  1  0.03994942  0.06503004  0.50298964  1
  C  C296  1  0.30241028  0.01320111  0.74417216  1
  O  O297  1  0.50033515  0.02693389  0.74278901  1
  C  C298  1  0.73073644  0.09872882  0.74320589  1
  O  O299  1  0.68337743  0.17043392  0.50368873  1
  H  H300  1  0.88762407  0.09422235  0.50857429  1
  H  H301  1  0.81424836  0.24467351  0.51037518  1
  H  H302  1  0.86418793  0.14900017  0.80562801  1
  H  H303  1  0.93047316  0.02212748  0.93030586  1
  C  C304  1  0.31248760  0.19932976  0.79639006  1
  H  H305  1  0.31527691  0.21803169  0.90723991  1
  H  H306  1  0.16351756  0.11055880  0.90864240  1
  C  C307  1  0.84249312  0.17195957  0.81453537  1
  C  C308  1  0.67618934  0.06360775  0.80250278  1
  C  C309  1  0.57854178  0.02163317  0.84978919  1
  N  N310  1  0.39149763  0.03211684  0.88226500  1
  C  C311  1  0.57494443  0.05035152  0.82928849  1
  N  N312  1  0.98279783  0.11751616  0.87323592  1
  C  C313  1  0.28314675  0.21049887  0.87366816  1
  C  C314  1  0.40912836  0.13802372  0.95520009  1
  C  C315  1  0.24455509  0.02765237  0.97502334  1
  H  H316  1  0.63757105  0.12981576  0.93050987  1
  C  C317  1  0.69975161  0.11769605  0.95023379  1
  C  C318  1  0.65324852  0.08925226  0.77533856  1
  N  N319  1  0.80603093  0.20858989  0.87149801  1
  C  C320  1  0.67966377  0.08637806  0.95243773  1
  C  C321  1  0.48292963  0.16593991  0.95355496  1
  H  H322  1  0.56756438  0.10011119  0.77783612  1
  C  C323  1  0.09536024  0.05067082  0.93420075  1
  C  C324  1  0.08892461  0.00361808  0.78609545  1
  C  C325  1  0.12386685  0.20415062  0.83127911  1
  H  H326  1  0.80614913  0.02684152  0.82038642  1
  C  C327  1  0.65369325  0.01922005  0.95710361  1
  H  H328  1  0.87179139  0.24459969  0.78040253  1
  C  C329  1  0.29805963  0.01780727  0.78852371  1
  C  C330  1  0.80505900  0.13095174  0.96592165  1
  H  H331  1  0.47562898  0.09364858  0.82011677  1
  H  H332  1  0.06265779  0.06986466  0.91572587  1
  C  C333  1  0.00710269  0.09117960  0.85283727  1
  H  H334  1  0.55223657  0.18876429  0.79962218  1
  C  C335  1  0.35465577  0.20224574  0.83935916  1
  H  H336  1  0.04357189  0.16207027  0.88497677  1
  C  C337  1  0.18807570  0.19964318  0.79358061  1
  C  C338  1  0.76788998  0.06738152  0.97100238  1
  O  O339  1  0.93536892  0.17274006  0.97533018  1
  C  C340  1  0.27416073  0.08450673  0.95368726  1
  H  H341  1  0.37838354  0.02517589  0.80692758  1
  N  N342  1  0.16582930  0.20906360  0.87016383  1
  C  C343  1  0.16715641  0.10885120  0.81095764  1
  O  O344  1  0.75729276  0.18526792  0.95178430  1
  C  C345  1  0.87309341  0.08041724  0.98822764  1
  C  C346  1  0.10224765  0.08315983  0.82717464  1
  C  C347  1  0.89522038  0.11087069  0.98115082  1
  C  C348  1  0.14366696  0.13612868  0.83379209  1
  Cu  Cu349  1  0.64655615  0.20320017  0.98952621  1
  H  H350  1  0.77701964  0.16165226  0.87621513  1
  C  C351  1  0.75065222  0.03408638  0.97676330  1
  C  C352  1  0.05937771  0.14093786  0.86584753  1
  H  H353  1  0.92981787  0.07755899  0.85885372  1
  C  C354  1  0.83093875  0.23141406  0.84429444  1
  H  H355  1  0.60669902  0.07450160  0.93664120  1
  C  C356  1  0.86793799  0.05827837  0.77032044  1
  O  O357  1  0.55993474  0.16964070  0.98529628  1
  H  H358  1  0.44814124  0.20267076  0.84858557  1
  C  C359  1  0.85829260  0.22512103  0.80213392  1
  C  C360  1  0.39550901  0.19551756  0.75852932  1
  O  O361  1  0.73384579  0.24167837  0.98703968  1
  C  C362  1  0.80225075  0.18151324  0.85483907  1
  C  C363  1  0.24072372  0.11093829  0.92977064  1
  C  C364  1  0.83921211  0.16438188  0.96499788  1
  H  H365  1  0.02451698  0.20440510  0.83334698  1
  O  O366  1  0.47296811  0.18408367  0.92543420  1
  C  C367  1  0.87321320  0.19586567  0.78524959  1
  H  H368  1  0.20311274  0.15469265  0.82951129  1
  Cu  Cu369  1  0.79114739  0.22618934  0.93307163  1
  C  C370  1  0.02259617  0.02551994  0.94202390  1
  C  C371  1  0.51862690  0.19013889  0.76697912  1
  C  C372  1  0.78607972  0.04743377  0.80022007  1
  C  C373  1  0.24364757  0.10478907  0.77183667  1
  H  H374  1  0.28364806  0.15683017  0.90661409  1
  H  H375  1  0.33283922  0.02416563  0.98747496  1
  C  C376  1  0.31094240  0.13683939  0.92735854  1
  H  H377  1  0.58547007  0.03446260  0.93881478  1
  C  C378  1  0.20506321  0.05529988  0.95482872  1
  H  H379  1  0.97636768  0.12292089  0.99066294  1
  C  C380  1  0.47803932  0.07008107  0.83465447  1
  C  C381  1  0.43309875  0.11457534  0.98460363  1
  C  C382  1  0.37278851  0.08717156  0.98270551  1
  C  C383  1  0.39063681  0.05859040  0.86267336  1
  H  H384  1  0.32268895  0.07233754  0.87903760  1
  H  H385  1  0.11208392  0.05993733  0.81233696  1
  H  H386  1  0.31426475  0.15054963  0.77782261  1
  C  C387  1  0.19027182  0.01383971  0.80959559  1
  H  H388  1  0.18530091  0.01931989  0.84434311  1
  H  H389  1  0.95785789  0.04680408  0.76599629  1
  C  C390  1  0.16972402  0.00209119  0.97692028  1
  H  H391  1  0.03256195  0.00370117  0.87676855  1
  H  H392  1  0.14353392  0.19379314  0.76460848  1
  H  H393  1  0.98644739  0.14301816  0.75858110  1
  H  H394  1  0.18677648  0.05848289  0.75504829  1
  C  C395  1  0.48404952  0.01310225  0.87598739  1
  H  H396  1  0.65444085  0.00713797  0.84729204  1
  N  N397  1  0.05926926  0.00048282  0.96095982  1
  C  C398  1  0.31507054  0.12956147  0.75708402  1
  C  C399  1  0.57599156  0.30031742  0.09936675  1
  O  O400  1  0.46611971  0.30148780  0.09919666  1
  O  O401  1  0.08796309  0.36183667  0.05763104  1
  H  H402  1  0.92045109  0.28880598  0.17458411  1
  H  H403  1  0.47085860  0.29778167  0.18585624  1
  C  C404  1  0.63074523  0.29627927  0.14161425  1
  C  C405  1  0.75350512  0.29546568  0.13886939  1
  H  H406  1  0.95780469  0.47144045  0.12673587  1
  C  C407  1  0.10671279  0.26080494  0.14969985  1
  C  C408  1  0.68138580  0.43312597  0.17053238  1
  H  H409  1  0.25630493  0.46506787  0.07088436  1
  C  C410  1  0.56667667  0.29528116  0.18102280  1
  H  H411  1  0.17327254  0.33608507  0.16279481  1
  H  H412  1  0.48171292  0.42402437  0.04887292  1
  H  H413  1  0.02780400  0.33506775  0.09471575  1
  C  C414  1  0.42925702  0.46890237  0.09648887  1
  Cu  Cu415  1  0.25075183  0.36903591  0.06944490  1
  C  C416  1  0.50299348  0.46946461  0.13338495  1
  C  C417  1  0.28298570  0.25290106  0.21894605  1
  O  O418  1  0.28782502  0.34461139  0.02203801  1
  O  O419  1  0.05445617  0.41188333  0.10559625  1
  C  C420  1  0.55364815  0.37850496  0.14139188  1
  H  H421  1  0.90395570  0.40818413  0.14883144  1
  O  O422  1  0.22178246  0.38721977  0.12241051  1
  C  C423  1  0.60984769  0.36025370  0.21728670  1
  C  C424  1  0.75826808  0.29177150  0.21520945  1
  C  C425  1  0.63216251  0.29377798  0.21881499  1
  H  H426  1  0.14387185  0.42201215  0.19806582  1
  C  C427  1  0.48729923  0.39907213  0.11426267  1
  H  H428  1  0.60394288  0.42046804  0.18135880  1
  C  C429  1  0.27557625  0.30912444  0.23195696  1
  H  H430  1  0.16248500  0.45532741  0.14223629  1
  C  C431  1  0.51983261  0.40659787  0.07208312  1
  C  C432  1  0.41919006  0.38408194  0.20234872  1
  O  O433  1  0.42126537  0.46634862  0.01754105  1
  C  C434  1  0.82013434  0.29055645  0.17598119  1
  C  C435  1  0.45576534  0.46057415  0.17287697  1
  H  H436  1  0.24475316  0.33226525  0.21957217  1
  Cu  Cu437  1  0.68275058  0.26821939  0.03125323  1
  C  C438  1  0.03580740  0.26380202  0.11331955  1
  C  C439  1  0.11862343  0.39732044  0.13144769  1
  C  C440  1  0.15901116  0.28642013  0.17117490  1
  O  O441  1  0.63610024  0.30213229  0.06538165  1
  C  C442  1  0.94523631  0.39692960  0.17782781  1
  H  H443  1  0.00924899  0.29460238  0.21944898  1
  C  C444  1  0.94877364  0.37478077  0.24795613  1
  H  H445  1  0.42038654  0.41250227  0.12830224  1
  H  H446  1  0.59590039  0.47428881  0.13443813  1
  N  N447  1  0.61154268  0.39429123  0.05301940  1
  H  H448  1  0.70582860  0.41496294  0.10188808  1
  H  H449  1  0.79070658  0.47333248  0.04000576  1
  C  C450  1  0.12680017  0.37467043  0.20563068  1
  C  C451  1  0.87669021  0.46406386  0.14467555  1
  N  N452  1  0.00656391  0.29056844  0.09544285  1
  Cu  Cu453  1  0.38335736  0.32543850  0.06081502  1
  C  C454  1  0.64546491  0.36493040  0.11621291  1
  H  H455  1  0.79170304  0.39799393  0.21740461  1
  H  H456  1  0.80104978  0.29563582  0.10760993  1
  H  H457  1  0.35753349  0.39342815  0.17774252  1
  H  H458  1  0.51449417  0.45924383  0.20185392  1
  C  C459  1  0.66615013  0.37134229  0.07384478  1
  C  C460  1  0.05167124  0.31564969  0.11631995  1
  C  C461  1  0.28284541  0.45452436  0.22362097  1
  C  C462  1  0.30828635  0.46367139  0.09958170  1
  C  C463  1  0.25979380  0.45947333  0.13924878  1
  C  C464  1  0.88762038  0.39147442  0.21619738  1
  C  C465  1  0.73697655  0.42846526  0.13096262  1
  H  H466  1  0.22296097  0.36965111  0.20433914  1
  C  C467  1  0.23771204  0.28206141  0.20917239  1
  C  C468  1  0.06362771  0.38751955  0.17107376  1
  C  C469  1  0.12958056  0.31413496  0.15115459  1
  C  C470  1  0.83191243  0.47092223  0.18623018  1
  C  C471  1  0.18577554  0.43498970  0.22748416  1
  N  N472  1  0.83572383  0.44288571  0.11891496  1
  C  C473  1  0.73490701  0.45348484  0.20036761  1
  Cu  Cu474  1  0.04427957  0.40345790  0.04886175  1
  C  C475  1  0.52959072  0.37172277  0.18725540  1
  C  C476  1  0.33043773  0.45832234  0.17772281  1
  C  C477  1  0.48130293  0.47301003  0.05220663  1
  H  H478  1  0.72889734  0.35974970  0.05294242  1
  H  H479  1  0.69559118  0.34790576  0.13419101  1
  H  H480  1  0.70177909  0.35438777  0.20814579  1
  H  H481  1  0.53103522  0.42334341  0.23864853  1
  O  O482  1  0.57809223  0.48342034  0.04943465  1
  C  C483  1  0.06648514  0.36515799  0.24237588  1
  H  H484  1  0.87517898  0.48858865  0.20560374  1
  C  C485  1  0.39126811  0.38206802  0.24492463  1
  C  C486  1  0.96327124  0.28534264  0.24846306  1
  Cu  Cu487  1  0.13462440  0.35344131  0.00216253  1
  C  C488  1  0.81236175  0.49704704  0.03188574  1
  C  C489  1  0.68371360  0.45387142  0.24535699  1
  H  H490  1  0.07792089  0.49943856  0.01719670  1
  H  H491  1  0.05880703  0.49150361  0.27352737  1
  N  N492  1  0.98749500  0.26308539  0.31739735  1
  Cu  Cu493  1  0.15235110  0.48303868  0.40850316  1
  C  C494  1  0.76545295  0.32535520  0.45322440  1
  C  C495  1  0.00623133  0.31598959  0.44110688  1
  O  O496  1  0.42336672  0.44276595  0.47774095  1
  C  C497  1  0.63209189  0.33138143  0.45209288  1
  O  O498  1  0.58639915  0.35334811  0.46720275  1
  C  C499  1  0.73945728  0.38296738  0.34199340  1
  C  C500  1  0.11597039  0.40537238  0.38137119  1
  C  C501  1  0.48893831  0.27417140  0.31056990  1
  H  H502  1  0.98498743  0.32774809  0.31544940  1
  C  C503  1  0.31632693  0.33125369  0.41992152  1
  C  C504  1  0.36276521  0.25130910  0.25204408  1
  C  C505  1  0.42832267  0.36641125  0.32043302  1
  N  N506  1  0.19560358  0.44163624  0.30357926  1
  H  H507  1  0.92475179  0.41723859  0.37316641  1
  C  C508  1  0.91966656  0.34467630  0.32025920  1
  O  O509  1  0.62970760  0.47184311  0.40529950  1
  C  C510  1  0.54036447  0.43987226  0.30202074  1
  O  O511  1  0.56264585  0.31130302  0.43464135  1
  O  O512  1  0.33571412  0.37525534  0.33323241  1
  C  C513  1  0.56505749  0.45880877  0.37825439  1
  O  O514  1  0.46633570  0.44845441  0.38844346  1
  Cu  Cu515  1  0.53078372  0.31717502  0.37479327  1
  C  C516  1  0.07784763  0.41082178  0.46787595  1
  C  C517  1  0.84524294  0.34847561  0.46620184  1
  C  C518  1  0.58137317  0.43809645  0.25971048  1
  H  H519  1  0.15046597  0.40249753  0.34771351  1
  C  C520  1  0.89153077  0.36941668  0.29164689  1
  C  C521  1  0.98272655  0.41530584  0.43982611  1
  O  O522  1  0.50379806  0.35699810  0.34842260  1
  H  H523  1  0.26836443  0.39240389  0.46187501  1
  N  N524  1  0.76005352  0.35877477  0.36623795  1
  H  H525  1  0.76645385  0.39236062  0.41219533  1
  N  N526  1  0.21201034  0.40215355  0.40622963  1
  H  H527  1  0.55837561  0.41144490  0.44061809  1
  H  H528  1  0.75432003  0.48414378  0.34491737  1
  H  H529  1  0.46064466  0.42728704  0.30756217  1
  C  C530  1  0.03259514  0.27506862  0.28298660  1
  C  C531  1  0.74959389  0.47105038  0.27753498  1
  C  C532  1  0.80276650  0.39034271  0.30445501  1
  H  H533  1  0.95872256  0.27000394  0.42203896  1
  C  C534  1  0.85257484  0.34226550  0.35863797  1
  H  H535  1  0.73757705  0.27819728  0.43100183  1
  C  C536  1  0.64754845  0.41955793  0.45284171  1
  C  C537  1  0.18466369  0.40129031  0.44885467  1
  C  C538  1  0.00056255  0.41260065  0.39492199  1
  H  H539  1  0.86091696  0.32487680  0.38481740  1
  H  H540  1  0.38981245  0.34657192  0.42370599  1
  H  H541  1  0.69688925  0.27017185  0.29398805  1
  H  H542  1  0.11825399  0.35543853  0.26967474  1
  C  C543  1  0.27671560  0.29149086  0.37649551  1
  H  H544  1  0.63751771  0.34776097  0.28262364  1
  C  C545  1  0.75729381  0.40951444  0.43794055  1
  C  C546  1  0.13660652  0.43245283  0.26818294  1
  H  H547  1  0.02353677  0.36430970  0.46069428  1
  H  H548  1  0.81713181  0.37138798  0.47901574  1
  N  N549  1  0.35213026  0.31179998  0.39010523  1
  H  H550  1  0.65964307  0.39445780  0.35697296  1
  C  C551  1  0.85772728  0.42309634  0.45515434  1
  O  O552  1  0.52654319  0.30052863  0.32448663  1
  C  C553  1  0.29293072  0.46006530  0.29957574  1
  C  C554  1  0.96673328  0.34500104  0.45658332  1
  H  H555  1  0.32721377  0.46584811  0.33131043  1
  Cu  Cu556  1  0.35955536  0.46266141  0.42465349  1
  C  C557  1  0.39849853  0.27707743  0.27612632  1
  C  C558  1  0.12720741  0.31111852  0.42387765  1
  H  H559  1  0.10024405  0.27695192  0.37160402  1
  C  C560  1  0.80426750  0.29613110  0.43907670  1
  C  C561  1  0.20912688  0.33227464  0.44089199  1
  C  C562  1  0.92520699  0.29183175  0.43260441  1
  C  C563  1  0.16295373  0.29038768  0.39120473  1
  H  H564  1  0.31036001  0.27990035  0.34977195  1
  O  O565  1  0.23396653  0.47758605  0.45757257  1
  H  H566  1  0.78115108  0.41115451  0.28533422  1
  H  H567  1  0.37697484  0.32518556  0.28889202  1
  C  C568  1  0.46519176  0.36776791  0.27422128  1
  C  C569  1  0.70417365  0.47256332  0.31847983  1
  C  C570  1  0.59913872  0.45753554  0.33341413  1
  C  C571  1  0.79220208  0.27254872  0.28986468  1
  C  C572  1  0.57512047  0.35763871  0.26014025  1
  C  C573  1  0.86925486  0.26288184  0.32124247  1
  C  C574  1  0.34331213  0.46624354  0.25939370  1
  O  O575  1  0.06208381  0.49328956  0.36081475  1
  H  H576  1  0.82988643  0.48372246  0.27170643  1
  H  H577  1  0.13304636  0.27393648  0.28564020  1
  H  H578  1  0.18139557  0.35184045  0.46223833  1
  H  H579  1  0.42787604  0.47780495  0.25561626  1
  C  C580  1  0.64566553  0.44086688  0.48693725  1
  H  H581  1  0.06260995  0.41739765  0.27669763  1
  H  H582  1  0.30888844  0.39236006  0.25820317  1
  C  C583  1  0.85619454  0.44517812  0.48928459  1
  H  H584  1  0.12385680  0.26315201  0.49425307  1
  H  H585  1  0.58829908  0.29611634  0.25049077  1
  C  C586  1  0.34875463  0.30580956  0.26783394  1
  C  C587  1  0.83910311  0.28598742  0.25192245  1
  H  H588  1  0.75433578  0.45068754  0.69612448  1
  H  H589  1  0.22072897  0.26570590  0.68049686  1
  O  O590  1  0.19523139  0.37722044  0.53494517  1
  H  H591  1  0.29180808  0.29115395  0.61647506  1
  H  H592  1  0.47930799  0.28698276  0.53596034  1
  C  C593  1  0.75169577  0.29420198  0.60839909  1
  H  H594  1  0.02409952  0.35006345  0.66326019  1
  C  C595  1  0.95557405  0.29548522  0.73803592  1
  C  C596  1  0.04801071  0.29921226  0.52997537  1
  H  H597  1  0.15737647  0.33365710  0.62341273  1
  C  C598  1  0.15136503  0.31675500  0.59631093  1
  C  C599  1  0.27965141  0.39367742  0.71697879  1
  C  C600  1  0.96826890  0.34462632  0.56625654  1
  C  C601  1  0.05870716  0.31957427  0.56607099  1
  C  C602  1  0.22660286  0.29311755  0.58993629  1
  C  C603  1  0.13399739  0.27691858  0.52292929  1
  H  H604  1  0.51807575  0.38324985  0.64716873  1
  C  C605  1  0.85835374  0.34400331  0.54576127  1
  C  C606  1  0.74705531  0.45129409  0.50915206  1
  H  H607  1  0.55058833  0.38438015  0.72910038  1
  N  N608  1  0.51772798  0.43028999  0.64369028  1
  C  C609  1  0.52114952  0.44908759  0.50178453  1
  C  C610  1  0.67887512  0.29975923  0.57244289  1
  C  C611  1  0.29087985  0.38501886  0.54439720  1
  H  H612  1  0.75324051  0.30984909  0.63533580  1
  C  C613  1  0.09559976  0.36095907  0.68135782  1
  N  N614  1  0.14912872  0.38043110  0.65544329  1
  C  C615  1  0.24416476  0.39492006  0.67386701  1
  H  H616  1  0.91015260  0.41603443  0.61314677  1
  C  C617  1  0.78714077  0.25930451  0.53764492  1
  C  C618  1  0.47224465  0.31089479  0.54710755  1
  N  N619  1  0.84474711  0.25184876  0.57245902  1
  H  H620  1  0.50381626  0.48342166  0.72188860  1
  H  H621  1  0.93630894  0.45539653  0.50144233  1
  C  C622  1  0.07947385  0.47961969  0.54803011  1
  C  C623  1  0.47894894  0.37020638  0.57944464  1
  N  N624  1  0.06993204  0.28286812  0.67606921  1
  C  C625  1  0.66128409  0.31696288  0.70234793  1
  H  H626  1  0.65619701  0.35786942  0.60825298  1
  H  H627  1  0.48100492  0.39332406  0.59314833  1
  C  C628  1  0.57467414  0.35085203  0.58900071  1
  C  C629  1  0.83043199  0.27016996  0.60615377  1
  H  H630  1  0.69319621  0.37082711  0.53422484  1
  N  N631  1  0.71845930  0.33822636  0.68135576  1
  H  H632  1  0.29878347  0.32096478  0.52271480  1
  C  C633  1  0.37038543  0.31860705  0.73225770  1
  H  H634  1  0.82860969  0.32303116  0.52982873  1
  H  H635  1  0.07466245  0.37424724  0.60793489  1
  H  H636  1  0.06494372  0.40994937  0.69448262  1
  H  H637  1  0.34078352  0.34466897  0.67112428  1
  H  H638  1  0.90301800  0.26567592  0.62883041  1
  N  N639  1  0.80319894  0.39207606  0.57363774  1
  H  H640  1  0.62420802  0.29917920  0.68222510  1
  H  H641  1  0.27938617  0.40975885  0.64836253  1
  C  C642  1  0.38427251  0.36011253  0.55530835  1
  Cu  Cu643  1  0.28129558  0.44567768  0.50828492  1
  H  H644  1  0.15422403  0.44675434  0.61461715  1
  C  C645  1  0.99596557  0.41911893  0.71546452  1
  C  C646  1  0.36965101  0.32408560  0.68802775  1
  N  N647  1  0.41125604  0.30530447  0.65889181  1
  C  C648  1  0.77803816  0.36768455  0.55015695  1
  C  C649  1  0.06209794  0.48863758  0.59273018  1
  C  C650  1  0.51346497  0.45993832  0.70729733  1
  C  C651  1  0.11811997  0.35688942  0.72536907  1
  C  C652  1  0.52969084  0.40563173  0.66774005  1
  O  O653  1  0.51118395  0.46248328  0.53518444  1
  H  H654  1  0.06488134  0.34122471  0.74548232  1
  C  C655  1  0.57360217  0.32143972  0.57040329  1
  C  C656  1  0.99167978  0.37149241  0.58988116  1
  H  H657  1  0.53047376  0.47638013  0.63963511  1
  C  C658  1  0.11218524  0.46868471  0.62415471  1
  C  C659  1  0.90568994  0.39430761  0.59375473  1
  C  C660  1  0.45260636  0.26975739  0.71355537  1
  C  C661  1  0.22475617  0.27336723  0.55374432  1
  N  N662  1  0.92113085  0.43417793  0.69422979  1
  C  C663  1  0.78114146  0.35864204  0.70258507  1
  O  O664  1  0.32742276  0.41345735  0.54494695  1
  C  C665  1  0.51693187  0.45754438  0.66255068  1
  H  H666  1  0.83155641  0.37248610  0.68068342  1
  C  C667  1  0.45323728  0.27874038  0.67122279  1
  H  H668  1  0.91018938  0.30208338  0.66820083  1
  C  C669  1  0.15013996  0.27350449  0.70361329  1
  H  H670  1  0.48155675  0.26607435  0.64269042  1
  O  O671  1  0.13220177  0.45420213  0.54057237  1
  H  H672  1  0.73866515  0.46749753  0.53444108  1
  C  C673  1  0.09639298  0.47747983  0.66659924  1
  C  C674  1  0.97404639  0.29439084  0.69382448  1
  C  C675  1  0.65011358  0.31702319  0.74704370  1
  C  C676  1  0.82306602  0.44202922  0.71637980  1
  C  C677  1  0.70283654  0.28161711  0.53515187  1
  H  H678  1  0.14144424  0.46369897  0.69156923  1
  C  C679  1  0.53559354  0.40671011  0.71269791  1
  C  C680  1  0.37334486  0.32996008  0.54043663  1
  H  H681  1  0.34302429  0.41075490  0.72959625  1
  H  H682  1  0.96941441  0.30038032  0.50991303  1
  C  C683  1  0.14628554  0.27133347  0.74906946  1
  C  C684  1  0.21065152  0.37426925  0.74437859  1
  H  H685  1  0.87691956  0.30643586  0.74965719  1
  C  C686  1  0.32245626  0.25148489  0.55430295  1
  C  C687  1  0.52008472  0.43414481  0.73553683  1
  O  O688  1  0.04343565  0.49591667  0.51770267  1
  C  C689  1  0.77552698  0.36323413  0.74760505  1
  C  C690  1  0.41381546  0.29061842  0.74612465  1
  H  H691  1  0.83226076  0.49945441  0.74533539  1
  H  H692  1  0.06935898  0.41304539  0.50366168  1
  H  H693  1  0.64655189  0.28238206  0.50693918  1
  C  C694  1  0.58040648  0.32894208  0.83820043  1
  C  C695  1  0.92392239  0.30702232  0.83075258  1
  C  C696  1  0.64324286  0.34876235  0.90428687  1
  C  C697  1  0.67179460  0.34598219  0.81572925  1
  C  C698  1  0.55839774  0.33163274  0.88113265  1
  C  C699  1  0.43200410  0.27127076  0.92945484  1
  H  H700  1  0.52323800  0.31494301  0.81851142  1
  H  H701  1  0.48309579  0.32000418  0.89687188  1
  C  C702  1  0.01832877  0.28825712  0.81445368  1
  H  H703  1  0.87568918  0.32396043  0.80951427  1
  C  C704  1  0.07724944  0.26911341  0.84386034  1
  C  C705  1  0.92446715  0.28167902  0.94573738  1
  C  C706  1  0.89339084  0.30501187  0.87337811  1
  O  O707  1  0.83583761  0.29624959  0.96006985  1
  C  C708  1  0.95836021  0.28446995  0.90137346  1
  H  H709  1  0.81976578  0.31837740  0.88735026  1
  H  H710  1  0.08930483  0.33988086  0.87895312  1
  Cu  Cu711  1  0.68830665  0.27564926  0.95407927  1
  C  C712  1  0.15216907  0.35375277  0.85892943  1
  C  C713  1  0.32216217  0.28745648  0.86519866  1
  C  C714  1  0.31954821  0.29252011  0.82027768  1
  H  H715  1  0.25004698  0.30618048  0.80599316  1
  H  H716  1  0.24728926  0.29374022  0.88593890  1
  H  H717  1  0.79213415  0.38501826  0.82254615  1
  C  C718  1  0.90860123  0.42593217  0.78667726  1
  C  C719  1  0.13899539  0.35453190  0.81517074  1
  C  C720  1  0.81473419  0.43802549  0.76104471  1
  H  H721  1  0.81398367  0.38377673  0.76314679  1
  O  O722  1  0.52732576  0.26237257  0.94412921  1
  C  C723  1  0.02179114  0.48986929  0.75901048  1
  H  H724  1  0.75715709  0.45367873  0.84918310  1
  C  C725  1  0.00610028  0.40912713  0.90202275  1
  O  O726  1  0.56727967  0.41928652  0.94561939  1
  H  H727  1  0.15056489  0.25561711  0.83004120  1
  C  C728  1  0.22187355  0.37251491  0.79236743  1
  H  H729  1  0.57944748  0.25626333  0.79200012  1
  C  C730  1  0.42246932  0.27333841  0.88123252  1
  C  C731  1  0.73766487  0.36797031  0.83958431  1
  C  C732  1  0.73016986  0.36673098  0.88476768  1
  C  C733  1  0.51092087  0.26499872  0.81195862  1
  C  C734  1  0.91255666  0.42005890  0.92779750  1
  H  H735  1  0.74740549  0.44769030  0.92831481  1
  C  C736  1  0.53924517  0.46592613  0.80625904  1
  O  O737  1  0.82624090  0.42388561  0.99418521  1
  C  C738  1  0.32328105  0.38795218  0.85855498  1
  C  C739  1  0.30764644  0.38998177  0.81424945  1
  Cu  Cu740  1  0.66966462  0.40847072  0.98959455  1
  H  H741  1  0.08048885  0.40640213  0.77665131  1
  C  C742  1  0.24438150  0.36896489  0.88078555  1
  O  O743  1  0.17963500  0.34765898  0.94435129  1
  C  C744  1  0.25550020  0.36330328  0.92591491  1
  H  H745  1  0.59855091  0.29902751  0.76256495  1
  H  H746  1  0.07496468  0.33980973  0.79630562  1
  O  O747  1  0.54377722  0.46846317  0.94023536  1
  Cu  Cu748  1  0.42105129  0.35801852  0.99094293  1
  O  O749  1  0.34123242  0.37529369  0.94424325  1
  H  H750  1  0.38412494  0.40114596  0.87632238  1
  C  C751  1  0.90504682  0.42367992  0.83485375  1
  H  H752  1  0.82795177  0.25545987  0.85284291  1
  H  H753  1  0.36991710  0.40255780  0.79562742  1
  C  C754  1  0.51677537  0.26279355  0.85602761  1
  O  O755  1  0.99923569  0.40023108  0.99177294  1
  C  C756  1  0.81982940  0.43573063  0.90839694  1
  C  C757  1  0.53463303  0.43664622  0.78384977  1
  C  C758  1  0.00102806  0.41565957  0.76066907  1
  O  O759  1  0.97173160  0.26120707  0.96909211  1
  C  C760  1  0.00272474  0.40955531  0.85790512  1
  H  H761  1  0.09088530  0.39888608  0.91665738  1
  H  H762  1  0.07918240  0.39979169  0.84162506  1
  H  H763  1  0.78773632  0.37995324  0.90384977  1
  O  O764  1  0.34210345  0.27725635  0.95079291  1
  O  O765  1  0.70700719  0.37076224  0.96767783  1
  C  C766  1  0.41431313  0.28150265  0.79299552  1
  H  H767  1  0.10675115  0.25118067  0.90863130  1
  C  C768  1  0.82467584  0.43850462  0.86402215  1
  H  H769  1  0.55087260  0.38674005  0.79355421  1
  C  C770  1  0.55029659  0.41015890  0.80867559  1
  H  H771  1  0.57041738  0.39354420  0.87122581  1
  H  H772  1  0.72890367  0.44454156  0.77510111  1
  C  C773  1  0.54391866  0.46893217  0.84973660  1
  C  C774  1  0.55405589  0.44142983  0.87530371  1
  C  C775  1  0.63407226  0.35273293  0.95141820  1
  C  C776  1  0.56098569  0.41348397  0.85292404  1
  C  C777  1  0.91378859  0.41343864  0.97410183  1
  C  C778  1  0.05223203  0.26614166  0.88741659  1
  C  C779  1  0.55552171  0.44301248  0.92133912  1
  O  O780  1  0.55714405  0.33784719  0.97126971  1
  Cu  Cu781  1  0.40793126  0.48642665  0.96542240  1
  H  H782  1  0.53940766  0.49070650  0.86697881  1
  H  H783  1  0.00608136  0.47818216  0.82914695  1
  Cu  Cu784  1  0.31397517  0.31012402  0.98728809  1
  H  H785  1  0.52204417  0.48611593  0.78518517  1
  C  C786  1  0.69999783  0.34256768  0.76889965  1
  H  H787  1  0.03051499  0.46498555  0.75060541  1
  H  H788  1  0.21079657  0.26027163  0.76877788  1
  H  H789  1  0.34364573  0.33762327  0.75344959  1
  C  C790  1  0.00457696  0.49531920  0.80373196  1
  C  C791  1  0.04378033  0.28493424  0.76768903  1
  H  H792  1  0.59014431  0.25060934  0.87127856  1
  H  H793  1  0.48090348  0.52218467  0.20344265  1
  C  C794  1  0.27130982  0.54080063  0.19017733  1
  H  H795  1  0.18660785  0.58071459  0.21038746  1
  H  H796  1  0.84331699  0.53230700  0.15668822  1
  H  H797  1  0.92354445  0.68563293  0.03304871  1
  C  C798  1  0.17963396  0.56250376  0.18563205  1
  H  H799  1  0.77697351  0.71875211  0.05809382  1
  C  C800  1  0.12311969  0.56531668  0.14590248  1
  N  N801  1  0.13725496  0.54557764  0.11561945  1
  H  H802  1  0.62665740  0.55267842  0.03154750  1
  H  H803  1  0.92137617  0.69511914  0.22469977  1
  C  C804  1  0.16722730  0.73086343  0.02511676  1
  H  H805  1  0.03694908  0.51565366  0.20612287  1
  H  H806  1  0.39759860  0.71511659  0.09230068  1
  N  N807  1  0.18986653  0.61121705  0.08979711  1
  C  C808  1  0.85009768  0.55790117  0.15552274  1
  C  C809  1  0.44554411  0.52439538  0.23539509  1
  C  C810  1  0.90600817  0.57378395  0.18838344  1
  C  C811  1  0.67599194  0.65288246  0.17437641  1
  C  C812  1  0.36291234  0.67988198  0.21808518  1
  C  C813  1  0.29988579  0.52340161  0.15297482  1
  C  C814  1  0.92165562  0.60576391  0.18148133  1
  H  H815  1  0.97351718  0.53817754  0.09451386  1
  O  O816  1  0.46772790  0.70907633  0.01944090  1
  C  C817  1  0.92798211  0.71141417  0.19771369  1
  C  C818  1  0.22103094  0.52413061  0.11848653  1
  C  C819  1  0.31159110  0.53749910  0.01216074  1
  H  H820  1  0.96780609  0.61778914  0.20797531  1
  H  H821  1  0.35847393  0.50425403  0.15272307  1
  H  H822  1  0.17450186  0.57273196  0.05897326  1
  C  C823  1  0.29093808  0.66123665  0.24260580  1
  C  C824  1  0.88567448  0.62129608  0.14400052  1
  H  H825  1  0.69404985  0.69948605  0.19899062  1
  C  C826  1  0.81999307  0.57545558  0.11875490  1
  C  C827  1  0.10148558  0.64327085  0.02005843  1
  C  C828  1  0.18320617  0.64103966  0.09197865  1
  H  H829  1  0.20795951  0.50797949  0.09164513  1
  C  C830  1  0.46678236  0.56854913  0.13533051  1
  N  N831  1  0.82686295  0.60525620  0.11398527  1
  N  N832  1  0.83666020  0.73008327  0.19842538  1
  H  H833  1  0.43408788  0.56889187  0.16980127  1
  C  C834  1  0.67547785  0.61447751  0.23061506  1
  C  C835  1  0.60631840  0.54180616  0.09743976  1
  C  C836  1  0.50377940  0.58472717  0.06093777  1
  C  C837  1  0.55527405  0.74377400  0.13708244  1
  C  C838  1  0.44914926  0.58866375  0.10143438  1
  H  H839  1  0.64082803  0.60377255  0.16326077  1
  C  C840  1  0.13643930  0.65898653  0.05801154  1
  C  C841  1  0.61328458  0.64622874  0.09569088  1
  C  C842  1  0.94401400  0.55710703  0.22892448  1
  C  C843  1  0.39328185  0.73204040  0.18296999  1
  H  H844  1  0.37109255  0.60270576  0.10322937  1
  H  H845  1  0.65717272  0.59172101  0.24495647  1
  C  C846  1  0.48522722  0.60237648  0.02055238  1
  C  C847  1  0.74408095  0.68891095  0.11361731  1
  C  C848  1  0.10613386  0.73056731  0.09764563  1
  H  H849  1  0.05681124  0.58273972  0.13439136  1
  H  H850  1  0.90089997  0.64572991  0.13465950  1
  C  C851  1  0.69252027  0.67519375  0.20757083  1
  C  C852  1  0.21849629  0.72509328  0.11376728  1
  H  H853  1  0.78814823  0.70317443  0.13765877  1
  C  C854  1  0.65850091  0.62155961  0.18682815  1
  H  H855  1  0.66228285  0.52084466  0.10197481  1
  H  H856  1  0.56848409  0.64744507  0.02654986  1
  H  H857  1  0.08547804  0.69231673  0.16997225  1
  H  H858  1  0.22201189  0.64816726  0.12405430  1
  C  C859  1  0.58351025  0.55952177  0.06092529  1
  C  C860  1  0.32523360  0.71134006  0.21198809  1
  C  C861  1  0.61041130  0.65793084  0.05450850  1
  H  H862  1  0.96409711  0.57373160  0.02811395  1
  H  H863  1  0.50668133  0.69664743  0.15279984  1
  N  N864  1  0.65650146  0.68555850  0.04280691  1
  C  C865  1  0.67484622  0.66380485  0.12852044  1
  C  C866  1  0.37663199  0.72243334  0.00743329  1
  N  N867  1  0.23492060  0.51571695  0.02308968  1
  H  H868  1  0.58562948  0.62272133  0.10186581  1
  C  C869  1  0.73355426  0.69865287  0.07107939  1
  C  C870  1  0.91258388  0.55230490  0.02791518  1
  H  H871  1  0.12837031  0.68422144  0.06234972  1
  N  N872  1  0.54615655  0.54709745  0.13322605  1
  H  H873  1  0.32148087  0.62549319  0.04308217  1
  H  H874  1  0.37832315  0.53440263  0.03781011  1
  C  C875  1  0.48730661  0.72178338  0.15700825  1
  C  C876  1  0.16092764  0.59717344  0.05268163  1
  H  H877  1  0.63895753  0.74128389  0.11821888  1
  C  C878  1  0.12692529  0.61191667  0.01481125  1
  H  H879  1  0.23345782  0.72553232  0.14896895  1
  C  C880  1  0.01222190  0.73202727  0.13328624  1
  H  H881  1  0.44303570  0.67143861  0.20493024  1
  H  H882  1  0.78033643  0.56751694  0.08839318  1
  C  C883  1  0.91797529  0.53379220  0.06419739  1
  C  C884  1  0.01349298  0.71060887  0.16676619  1
  C  C885  1  0.28321899  0.72522153  0.03967744  1
  C  C886  1  0.30487995  0.72122504  0.08327016  1
  C  C887  1  0.33162745  0.53654510  0.23269780  1
  C  C888  1  0.07457644  0.73269515  0.05281059  1
  C  C889  1  0.22172887  0.72066362  0.23087352  1
  C  C890  1  0.38809113  0.62442522  0.01859318  1
  H  H891  1  0.31509951  0.63693304  0.24934545  1
  H  H892  1  0.18955929  0.74498059  0.22501584  1
  C  C893  1  0.99673850  0.52754034  0.23324266  1
  C  C894  1  0.83469881  0.74997923  0.16533177  1
  H  H895  1  0.98411949  0.73649025  0.04068504  1
  N  N896  1  0.87377857  0.50578805  0.06496539  1
  C  C897  1  0.13820282  0.51638819  0.00107295  1
  H  H898  1  0.87897758  0.60652473  0.00250895  1
  H  H899  1  0.84864179  0.73730417  0.27234018  1
  H  H900  1  0.59739802  0.51403722  0.27721071  1
  C  C901  1  0.52886792  0.73758317  0.27523616  1
  C  C902  1  0.50679868  0.52337455  0.27465048  1
  H  H903  1  0.16536142  0.54664108  0.26600196  1
  O  O904  1  0.98744174  0.53519098  0.38482894  1
  H  H905  1  0.06110170  0.71201412  0.27191603  1
  C  C906  1  0.00901304  0.51718958  0.35320486  1
  H  H907  1  0.11613781  0.72003664  0.36479228  1
  O  O908  1  0.41759831  0.53880841  0.38519172  1
  H  H909  1  0.44927852  0.72920372  0.41539547  1
  Cu  Cu910  1  0.69073489  0.57792577  0.36682539  1
  Cu  Cu911  1  0.73947958  0.59262974  0.44340190  1
  O  O912  1  0.61117051  0.61737361  0.44305284  1
  O  O913  1  0.67505963  0.55808371  0.41869902  1
  H  H914  1  0.87960851  0.59561205  0.26468174  1
  H  H915  1  0.93903575  0.57430385  0.33453476  1
  C  C916  1  0.48552614  0.68249013  0.33004445  1
  Cu  Cu917  1  0.48701766  0.56186627  0.42731506  1
  Cu  Cu918  1  0.64232334  0.51499963  0.41355059  1
  Cu  Cu919  1  0.83425587  0.54543125  0.40582980  1
  C  C920  1  0.71012348  0.66900423  0.25018362  1
  H  H921  1  0.25988123  0.54191035  0.33822451  1
  O  O922  1  0.47016795  0.60116852  0.40208690  1
  O  O923  1  0.72932330  0.59804873  0.31450407  1
  O  O924  1  0.58936958  0.52467917  0.35840249  1
  C  C925  1  0.38668936  0.73915602  0.39368934  1
  C  C926  1  0.87023540  0.71569699  0.33484159  1
  C  C927  1  0.54038012  0.62190630  0.41196877  1
  O  O928  1  0.95961196  0.62346154  0.39523944  1
  C  C929  1  0.31282687  0.54027677  0.30890858  1
  C  C930  1  0.43683384  0.53139890  0.31064489  1
  O  O931  1  0.14371274  0.62671231  0.28853772  1
  C  C932  1  0.54609309  0.65225598  0.39168475  1
  C  C933  1  0.61507031  0.67615681  0.40795192  1
  O  O934  1  0.47303169  0.53196087  0.47037876  1
  C  C935  1  0.25205249  0.64162801  0.46874483  1
  H  H936  1  0.33646393  0.64259294  0.45088379  1
  Cu  Cu937  1  0.92123987  0.65166762  0.35252038  1
  C  C938  1  0.11263874  0.65294339  0.28693499  1
  H  H939  1  0.44730681  0.74411960  0.48421009  1
  C  C940  1  0.61617349  0.70430269  0.38485518  1
  C  C941  1  0.26179188  0.54288025  0.27042975  1
  C  C942  1  0.58459347  0.73230489  0.31578329  1
  O  O943  1  0.86713508  0.54114375  0.46508256  1
  C  C944  1  0.94641901  0.55999568  0.30466793  1
  C  C945  1  0.56396231  0.70567535  0.34374322  1
  H  H946  1  0.81407208  0.69596089  0.33257722  1
  N  N947  1  0.28604474  0.72386808  0.38893481  1
  C  C948  1  0.74068889  0.62564638  0.30235883  1
  O  O949  1  0.76769013  0.64540304  0.33084525  1
  H  H950  1  0.66278826  0.67348830  0.43916286  1
  C  C951  1  0.14981734  0.63773960  0.44427504  1
  C  C952  1  0.48308067  0.65553807  0.35288615  1
  H  H953  1  0.16157163  0.63682024  0.40896491  1
  H  H954  1  0.42163411  0.63597383  0.34608845  1
  C  C955  1  0.71025752  0.63703896  0.26046497  1
  H  H956  1  0.65863309  0.72486212  0.39860437  1
  O  O957  1  0.01774594  0.66250734  0.30710094  1
  H  H958  1  0.71845904  0.68642677  0.27647379  1
  C  C959  1  0.95203605  0.55224616  0.48584568  1
  O  O960  1  0.84444599  0.62727814  0.45367422  1
  N  N961  1  0.61267153  0.74215366  0.47923091  1
  C  C962  1  0.94052867  0.62927568  0.43499576  1
  C  C963  1  0.03719193  0.63585572  0.46360226  1
  C  C964  1  0.99069056  0.52997505  0.30987627  1
  H  H965  1  0.42298401  0.68623966  0.30164722  1
  C  C966  1  0.20041787  0.73286382  0.36322161  1
  C  C967  1  0.48073172  0.53106003  0.35435491  1
  N  N968  1  0.91138047  0.71854038  0.37456620  1
  C  C969  1  0.14420526  0.70326912  0.25582573  1
  H  H970  1  0.45087509  0.72430572  0.26382509  1
  H  H971  1  0.78983695  0.73748751  0.46849262  1
  C  C972  1  0.91972514  0.57329786  0.26669023  1
  Cu  Cu973  1  0.14750186  0.51071633  0.47463787  1
  H  H974  1  0.92272448  0.69880807  0.47762445  1
  C  C975  1  0.01736013  0.51409350  0.27205523  1
  C  C976  1  0.96149375  0.74450288  0.38655445  1
  C  C977  1  0.88748343  0.73912984  0.30431564  1
  O  O978  1  0.05725756  0.54860064  0.47328331  1
  C  C979  1  0.98139863  0.71598230  0.49337268  1
  H  H980  1  0.97564332  0.74355361  0.42148163  1
  C  C981  1  0.18387931  0.67304530  0.25836426  1
  O  O982  1  0.30286063  0.54091581  0.49906224  1
  N  N983  1  0.92618066  0.74291322  0.49292187  1
  H  H984  1  0.45923740  0.61573421  0.49532411  1
  H  H985  1  0.32646359  0.68709538  0.50405374  1
  H  H986  1  0.00019454  0.72180628  0.57943735  1
  C  C987  1  0.63085693  0.52410865  0.59330856  1
  C  C988  1  0.62605636  0.71695501  0.58828039  1
  C  C989  1  0.99344950  0.51510729  0.60471799  1
  C  C990  1  0.95843450  0.60440879  0.68283481  1
  H  H991  1  0.26942955  0.65816474  0.60427848  1
  H  H992  1  0.17267839  0.54254627  0.62555480  1
  C  C993  1  0.39262150  0.54587764  0.58362251  1
  C  C994  1  0.61289952  0.52517320  0.67548397  1
  C  C995  1  0.02494414  0.63904918  0.50894943  1
  C  C996  1  0.16789080  0.73736021  0.51846974  1
  H  H997  1  0.10644476  0.57782397  0.54713853  1
  C  C998  1  0.45657643  0.53619393  0.54864059  1
  C  C999  1  0.99269688  0.58723196  0.59757536  1
  H  H1000  1  0.05278301  0.60109595  0.67239113  1
  H  H1001  1  0.51917122  0.67894798  0.53665691  1
  C  C1002  1  0.01237176  0.57585776  0.55691462  1
  C  C1003  1  0.46449149  0.69936789  0.54284723  1
  C  C1004  1  0.86118920  0.59801151  0.65564011  1
  C  C1005  1  0.02793827  0.50328144  0.67916074  1
  O  O1006  1  0.71464376  0.68806468  0.70575482  1
  O  O1007  1  0.69387370  0.69852538  0.57445313  1
  C  C1008  1  0.16169930  0.69159195  0.66225509  1
  O  O1009  1  0.84543245  0.73925730  0.72010573  1
  Cu  Cu1010  1  0.76638072  0.73789328  0.66643291  1
  C  C1011  1  0.02528703  0.51210564  0.72646145  1
  C  C1012  1  0.74299485  0.60368316  0.67025216  1
  C  C1013  1  0.13879990  0.71027033  0.62561897  1
  C  C1014  1  0.87073555  0.58593312  0.61231868  1
  H  H1015  1  0.68905139  0.57298315  0.59531475  1
  C  C1016  1  0.49456022  0.69303022  0.67188522  1
  N  N1017  1  0.54209998  0.62691442  0.59933413  1
  C  C1018  1  0.35658246  0.70568301  0.52481843  1
  H  H1019  1  0.66613693  0.59774622  0.65196778  1
  O  O1020  1  0.66038302  0.73738327  0.61654787  1
  C  C1021  1  0.20391038  0.55701301  0.65147029  1
  C  C1022  1  0.23840783  0.64106129  0.51496432  1
  H  H1023  1  0.72003957  0.51476193  0.59603007  1
  H  H1024  1  0.56790148  0.69336649  0.64841890  1
  C  C1025  1  0.28975254  0.73200193  0.53512578  1
  H  H1026  1  0.90648484  0.64846494  0.64981210  1
  C  C1027  1  0.97220518  0.66603642  0.64493746  1
  C  C1028  1  0.02826443  0.70713006  0.60554471  1
  C  C1029  1  0.45324074  0.62523683  0.52893141  1
  N  N1030  1  0.94543327  0.68690316  0.61466065  1
  H  H1031  1  0.11399497  0.64451546  0.57053462  1
  H  H1032  1  0.95400057  0.53203579  0.58274162  1
  C  C1033  1  0.27998732  0.69278516  0.68334518  1
  H  H1034  1  0.02940755  0.56237344  0.72435490  1
  H  H1035  1  0.46723711  0.54808346  0.71072040  1
  H  H1036  1  0.07856591  0.65187925  0.69577200  1
  C  C1037  1  0.07532418  0.66859789  0.66933209  1
  H  H1038  1  0.63546308  0.61310126  0.54639210  1
  C  C1039  1  0.54697859  0.62229973  0.55696265  1
  C  C1040  1  0.44221145  0.64006353  0.61453676  1
  H  H1041  1  0.40657384  0.55468939  0.65147655  1
  C  C1042  1  0.97723557  0.52279331  0.64776212  1
  C  C1043  1  0.50521163  0.72281825  0.57018272  1
  C  C1044  1  0.25841996  0.60574801  0.67475922  1
  C  C1045  1  0.77821917  0.57408280  0.58494775  1
  C  C1046  1  0.38239819  0.69506445  0.65588405  1
  H  H1047  1  0.93443918  0.54393275  0.65839590  1
  C  C1048  1  0.63167149  0.68291325  0.73155197  1
  C  C1049  1  0.51046551  0.68579525  0.71533702  1
  H  H1050  1  0.22540995  0.68262366  0.74958004  1
  C  C1051  1  0.40545141  0.53576383  0.50381129  1
  H  H1052  1  0.72885532  0.55809445  0.52323332  1
  H  H1053  1  0.78820440  0.50481586  0.65979863  1
  C  C1054  1  0.28522078  0.59828688  0.71662946  1
  C  C1055  1  0.56906123  0.53305787  0.63055378  1
  H  H1056  1  0.19950151  0.72582189  0.61095992  1
  C  C1057  1  0.57328854  0.52551361  0.55464768  1
  C  C1058  1  0.92589635  0.56436395  0.52836734  1
  C  C1059  1  0.34160594  0.63596442  0.54487241  1
  H  H1060  1  0.06587945  0.59658638  0.61504075  1
  C  C1061  1  0.12406782  0.64301829  0.53502549  1
  C  C1062  1  0.45518741  0.54601397  0.62235737  1
  N  N1063  1  0.21986419  0.58646520  0.64419112  1
  H  H1064  1  0.36342378  0.69948494  0.62214689  1
  H  H1065  1  0.46136702  0.64694652  0.64666526  1
  Cu  Cu1066  1  0.87224618  0.69696774  0.71093930  1
  C  C1067  1  0.34557057  0.64527667  0.58895199  1
  C  C1068  1  0.80370651  0.56589822  0.54261295  1
  H  H1069  1  0.26280268  0.62812086  0.65870945  1
  H  H1070  1  0.30446964  0.55583942  0.58214912  1
  C  C1071  1  0.72445656  0.51223199  0.68616813  1
  H  H1072  1  0.61546127  0.51588682  0.52750430  1
  C  C1073  1  0.24078974  0.54770256  0.69253649  1
  C  C1074  1  0.29861430  0.68879716  0.72835565  1
  H  H1075  1  0.94054842  0.63730807  0.52629801  1
  H  H1076  1  0.23669340  0.52428393  0.70340676  1
  C  C1077  1  0.75054388  0.50722693  0.72985966  1
  C  C1078  1  0.43925836  0.74805714  0.58526808  1
  C  C1079  1  0.55294935  0.53646001  0.71211323  1
  H  H1080  1  0.65013778  0.62382519  0.72541900  1
  C  C1081  1  0.41060087  0.68503117  0.74333508  1
  C  C1082  1  0.73123283  0.61722872  0.70953552  1
  C  C1083  1  0.93386503  0.61902145  0.72187454  1
  C  C1084  1  0.28101050  0.56640529  0.72666795  1
  H  H1085  1  0.44716859  0.74563176  0.71778163  1
  N  N1086  1  0.82212137  0.62616371  0.73473195  1
  H  H1087  1  0.31229131  0.61558073  0.73885425  1
  C  C1088  1  0.01133399  0.54205521  0.74290519  1
  H  H1089  1  0.00628454  0.62356235  0.74417689  1
  C  C1090  1  0.09851117  0.71140703  0.50421748  1
  H  H1091  1  0.13524481  0.68760998  0.50131659  1
  O  O1092  1  0.38648281  0.50706110  0.91341570  1
  H  H1093  1  0.42691121  0.68059776  0.77705375  1
  H  H1094  1  0.73967918  0.50473358  0.96689652  1
  H  H1095  1  0.45862307  0.59154093  0.77654461  1
  N  N1096  1  0.68948836  0.51591912  0.76404821  1
  H  H1097  1  0.11215383  0.60032062  0.98455213  1
  C  C1098  1  0.31339208  0.52079949  0.83238173  1
  O  O1099  1  0.38545080  0.68362354  0.90899974  1
  C  C1100  1  0.03951259  0.66280411  0.98679743  1
  O  O1101  1  0.81519138  0.74320750  0.91256033  1
  C  C1102  1  0.94734131  0.68320178  0.99907919  1
  O  O1103  1  0.50409675  0.54820203  0.91713196  1
  H  H1104  1  0.83430886  0.71975239  0.98094285  1
  H  H1105  1  0.14705533  0.73448486  0.99034739  1
  C  C1106  1  0.32531117  0.55396086  0.77025051  1
  C  C1107  1  0.05773623  0.60861470  0.86927374  1
  C  C1108  1  0.76569453  0.57953972  0.88467885  1
  C  C1109  1  0.30319412  0.56064757  0.98135549  1
  H  H1110  1  0.03013644  0.53405224  0.94893851  1
  O  O1111  1  0.34680693  0.72951694  0.96925658  1
  C  C1112  1  0.37254726  0.64380967  0.98411853  1
  O  O1113  1  0.24085121  0.66303270  0.81684625  1
  C  C1114  1  0.84919118  0.59887792  0.97093932  1
  C  C1115  1  0.07473323  0.66230040  0.94260876  1
  C  C1116  1  0.79070709  0.51400313  0.99412543  1
  C  C1117  1  0.99248158  0.54509623  0.78687363  1
  C  C1118  1  0.11543098  0.53568085  0.96597639  1
  C  C1119  1  0.27534313  0.52827053  0.79112132  1
  C  C1120  1  0.78377687  0.55872396  0.91739952  1
  C  C1121  1  0.14635450  0.65199418  0.82359410  1
  C  C1122  1  0.43853726  0.53178080  0.89750012  1
  C  C1123  1  0.54863665  0.61951837  0.94808698  1
  H  H1124  1  0.14517020  0.64797359  0.93217346  1
  C  C1125  1  0.93269241  0.70124513  0.92369891  1
  H  H1126  1  0.72727376  0.57253714  0.85282186  1
  C  C1127  1  0.83177126  0.61978139  0.93759918  1
  C  C1128  1  0.20051497  0.55767027  0.95544422  1
  H  H1129  1  0.59771848  0.61581913  0.91906952  1
  C  C1130  1  0.39232721  0.53972971  0.85220134  1
  H  H1131  1  0.51798163  0.57897889  0.85082859  1
  C  C1132  1  0.82177595  0.56827454  0.96043368  1
  C  C1133  1  0.56072229  0.60021195  0.98289976  1
  C  C1134  1  0.88106861  0.72378784  0.89456764  1
  Cu  Cu1135  1  0.43027277  0.72550949  0.91988021  1
  C  C1136  1  0.02514607  0.68135344  0.91266947  1
  O  O1137  1  0.05046607  0.65992926  0.80392679  1
  C  C1138  1  0.07379276  0.58585580  0.89919766  1
  H  H1139  1  0.27565828  0.50036904  0.84921052  1
  O  O1140  1  0.54802351  0.66295562  0.88746831  1
  H  H1141  1  0.34113842  0.63565847  0.86945432  1
  H  H1142  1  0.36366590  0.59641276  0.92282498  1
  Cu  Cu1143  1  0.68224788  0.68852614  0.90185404  1
  O  O1144  1  0.78618687  0.66181707  0.87393811  1
  H  H1145  1  0.95969789  0.56589751  0.80449838  1
  O  O1146  1  0.59788548  0.71925612  0.92749462  1
  C  C1147  1  0.41516165  0.57142234  0.79191096  1
  H  H1148  1  0.76804750  0.53488318  0.91003258  1
  C  C1149  1  0.77538104  0.63339443  0.86355210  1
  C  C1150  1  0.84094585  0.54351785  0.99225815  1
  H  H1151  1  0.05531879  0.67720257  0.88036269  1
  O  O1152  1  0.74068663  0.62642200  0.82627589  1
  C  C1153  1  0.14994562  0.62784274  0.85665189  1
  C  C1154  1  0.26003049  0.62241484  0.87659591  1
  C  C1155  1  0.45086257  0.56524818  0.83388312  1
  H  H1156  1  0.55453497  0.53725439  0.78322737  1
  C  C1157  1  0.18237932  0.57959131  0.91852204  1
  H  H1158  1  0.85880748  0.64357212  0.94176084  1
  H  H1159  1  0.96703170  0.61060808  0.85547121  1
  C  C1160  1  0.27760827  0.60028401  0.90769128  1
  O  O1161  1  0.88703820  0.72324064  0.85422223  1
  H  H1162  1  0.99963217  0.56862450  0.90524124  1
  C  C1163  1  0.46060667  0.66323513  0.91359489  1
  Cu  Cu1164  1  0.80203463  0.65593104  0.78876069  1
  C  C1165  1  0.79201667  0.61089709  0.89691004  1
  Cu  Cu1166  1  0.96298778  0.69062853  0.82522179  1
  N  N1167  1  0.98768094  0.52318808  0.81749586  1
  Cu  Cu1168  1  0.95564561  0.73364030  0.76808287  1
  O  O1169  1  0.65376749  0.67283071  0.76871575  1
  H  H1170  1  0.21318081  0.51348161  0.77392062  1
  C  C1171  1  0.46079070  0.64281069  0.95089419  1
  O  O1172  1  0.87286248  0.69731999  0.77405096  1
  C  C1173  1  0.89771222  0.70220090  0.96740034  1
  C  C1174  1  0.59508604  0.53107975  0.75367685  1
  Cu  Cu1175  1  0.60498832  0.71087021  0.98633064  1
  Cu  Cu1176  1  0.74742835  0.72370189  0.76482350  1
  H  H1177  1  0.30197216  0.66021362  0.98169811  1
  H  H1178  1  0.36744962  0.57868801  0.97519193  1
  H  H1179  1  0.62675204  0.58103818  0.98215248  1
  Cu  Cu1180  1  0.34204115  0.88871846  0.15575429  1
  N  N1181  1  0.53422748  0.77360215  0.13980405  1
  C  C1182  1  0.68124363  0.81687428  0.04036318  1
  O  O1183  1  0.76229547  0.91192106  0.18926172  1
  O  O1184  1  0.99968058  0.98715381  0.22734190  1
  O  O1185  1  0.17145088  0.87539878  0.20361672  1
  O  O1186  1  0.21509517  0.90370655  0.13011087  1
  C  C1187  1  0.44725006  0.93994555  0.06205809  1
  C  C1188  1  0.69693235  0.84057433  0.10843673  1
  H  H1189  1  0.67837787  0.81832354  0.12209616  1
  C  C1190  1  0.79988288  0.98195771  0.00146664  1
  H  H1191  1  0.52802890  0.80569764  0.07814897  1
  C  C1192  1  0.11597528  0.79982928  0.03891947  1
  C  C1193  1  0.44090957  0.78305873  0.16184977  1
  Cu  Cu1194  1  0.14183018  0.99361923  0.16099612  1
  C  C1195  1  0.50192395  0.85906304  0.21327823  1
  C  C1196  1  0.91409453  0.75220793  0.13116728  1
  C  C1197  1  0.02929225  0.80272976  0.20918565  1
  H  H1198  1  0.29181944  0.77299570  0.20340556  1
  O  O1199  1  0.59983267  0.87154268  0.21997932  1
  C  C1200  1  0.76842003  0.89885583  0.07402074  1
  C  C1201  1  0.70549616  0.84657512  0.06392505  1
  H  H1202  1  0.71895155  0.86380155  0.16889856  1
  C  C1203  1  0.71925136  0.86605958  0.13347820  1
  C  C1204  1  0.16726558  0.90035258  0.02942857  1
  C  C1205  1  0.98196458  0.83618713  0.02411487  1
  O  O1206  1  0.12625061  0.95328012  0.16510022  1
  H  H1207  1  0.14328520  0.78647506  0.06623201  1
  H  H1208  1  0.80625143  0.92059031  0.06017535  1
  H  H1209  1  0.73958023  0.87824526  0.01104163  1
  Cu  Cu1210  1  0.15709426  0.91446774  0.18403719  1
  H  H1211  1  0.75183692  0.76318976  0.16926317  1
  Cu  Cu1212  1  0.51008670  0.95836256  0.21848019  1
  H  H1213  1  0.44540790  0.80831536  0.16444935  1
  C  C1214  1  0.12740202  0.84998237  0.19165240  1
  N  N1215  1  0.04505547  0.82174314  0.05307438  1
  O  O1216  1  0.12200412  0.92147391  0.05378345  1
  Cu  Cu1217  1  0.17020923  0.94027860  0.10505015  1
  O  O1218  1  0.57003939  0.98962048  0.18677826  1
  Cu  Cu1219  1  0.19215815  0.86282963  0.10286886  1
  C  C1220  1  0.41408877  0.96594392  0.03838529  1
  O  O1221  1  0.80648827  0.94447610  0.13871269  1
  Cu  Cu1222  1  0.96320433  0.95434057  0.15041122  1
  C  C1223  1  0.77559674  0.91892197  0.15002619  1
  C  C1224  1  0.75795531  0.89442247  0.11817903  1
  H  H1225  1  0.55109945  0.76475605  0.21383587  1
  H  H1226  1  0.50291386  0.75393527  0.04472449  1
  C  C1227  1  0.49541911  0.91331006  0.04332722  1
  O  O1228  1  0.23101501  0.88083690  0.04760699  1
  H  H1229  1  0.29241871  0.82740295  0.20502584  1
  H  H1230  1  0.52843239  0.89485046  0.06428116  1
  Cu  Cu1231  1  0.63197351  0.91254418  0.22816315  1
  O  O1232  1  0.42572400  0.96774357  0.12662563  1
  C  C1233  1  0.43420772  0.94184503  0.10977088  1
  O  O1234  1  0.45367527  0.91819958  0.13048666  1
  C  C1235  1  0.73885823  0.87501250  0.04594222  1
  Cu  Cu1236  1  0.72202180  0.98016224  0.20912797  1
  Cu  Cu1237  1  0.13093868  0.96357083  0.22460160  1
  O  O1238  1  0.14218605  0.97738657  0.07743746  1
  O  O1239  1  0.13614224  0.84067611  0.15250292  1
  O  O1240  1  0.45863585  0.86111909  0.17688569  1
  H  H1241  1  0.02643318  0.79832515  0.17499904  1
  C  C1242  1  0.07406230  0.83134016  0.22382048  1
  C  C1243  1  0.75480142  0.80265415  0.00833562  1
  C  C1244  1  0.57532674  0.75938634  0.24748169  1
  O  O1245  1  0.95749394  0.98225260  0.10408687  1
  H  H1246  1  0.38880338  0.98862643  0.05270404  1
  C  C1247  1  0.58489090  0.79901056  0.05129771  1
  H  H1248  1  0.85810905  0.96458148  0.01750848  1
  Cu  Cu1249  1  0.54447643  0.99586293  0.12908264  1
  C  C1250  1  0.36695508  0.76343413  0.18477046  1
  H  H1251  1  0.90378977  0.77003933  0.10667045  1
  H  H1252  1  0.91936537  0.85073168  0.03918452  1
  N  N1253  1  0.63364199  0.75625490  0.00526252  1
  C  C1254  1  0.56924312  0.76946592  0.03597090  1
  C  C1255  1  0.04851728  0.99320773  0.08679530  1
  H  H1256  1  0.95506223  0.76027284  0.22588778  1
  O  O1257  1  0.42012651  0.92862791  0.24723222  1
  C  C1258  1  0.99517337  0.78120730  0.24000235  1
  C  C1259  1  0.34056231  0.82399920  0.23584315  1
  C  C1260  1  0.44982007  0.83802046  0.24596563  1
  O  O1261  1  0.65604019  0.95163744  0.24394368  1
  H  H1262  1  0.60210166  0.84379535  0.29176670  1
  Cu  Cu1263  1  0.58417344  0.96473295  0.29760392  1
  O  O1264  1  0.85751991  0.98525511  0.27635890  1
  H  H1265  1  0.48778385  0.77583732  0.36939630  1
  H  H1266  1  0.37641105  0.96521814  0.40183343  1
  H  H1267  1  0.20279715  0.77540707  0.42431670  1
  C  C1268  1  0.84790280  0.97958778  0.40314158  1
  C  C1269  1  0.13167259  0.95308621  0.48724303  1
  C  C1270  1  0.35678774  0.79737285  0.30323657  1
  H  H1271  1  0.69002680  0.94424507  0.45509091  1
  C  C1272  1  0.31744965  0.93623497  0.26352932  1
  C  C1273  1  0.46710576  0.81236440  0.31282891  1
  C  C1274  1  0.56087271  0.85077070  0.40723612  1
  C  C1275  1  0.97330077  0.77046488  0.36106487  1
  C  C1276  1  0.40242094  0.76467736  0.36755788  1
  C  C1277  1  0.44462802  0.88571592  0.48397846  1
  H  H1278  1  0.52291793  0.89706166  0.38676597  1
  N  N1279  1  0.66571516  0.77845817  0.25291687  1
  H  H1280  1  0.12156839  0.94544543  0.32228189  1
  C  C1281  1  0.15968033  0.92380213  0.32316295  1
  C  C1282  1  0.12026487  0.90140948  0.35132778  1
  C  C1283  1  0.99219909  0.78917169  0.28451146  1
  H  H1284  1  0.99307316  0.79157214  0.37857879  1
  C  C1285  1  0.30815224  0.96311246  0.42820020  1
  C  C1286  1  0.77725981  0.96549886  0.37262545  1
  H  H1287  1  0.39503707  0.88396429  0.27929863  1
  C  C1288  1  0.62603141  0.79802493  0.42919118  1
  C  C1289  1  0.15855848  0.79839809  0.42011373  1
  Cu  Cu1290  1  0.80019564  0.94503934  0.28390645  1
  H  H1291  1  0.03572041  0.82311660  0.33352677  1
  C  C1292  1  0.35052742  0.84122695  0.48644565  1
  O  O1293  1  0.75952547  0.90582961  0.29808728  1
  C  C1294  1  0.13327867  0.84814393  0.38338855  1
  C  C1295  1  0.03007259  0.81912812  0.29849180  1
  C  C1296  1  0.72172629  0.77818169  0.43758632  1
  C  C1297  1  0.95038581  0.76583502  0.31553688  1
  C  C1298  1  0.52307827  0.78701284  0.44930328  1
  C  C1299  1  0.70543588  0.77722833  0.29261264  1
  H  H1300  1  0.93246513  0.82937233  0.46238353  1
  C  C1301  1  0.57554520  0.87656881  0.38220668  1
  C  C1302  1  0.66450132  0.87680927  0.35134254  1
  O  O1303  1  0.27349613  0.96155117  0.25363335  1
  C  C1304  1  0.64488523  0.82585549  0.40347170  1
  N  N1305  1  0.70018771  0.97960089  0.34720274  1
  C  C1306  1  0.31765255  0.88883725  0.30022233  1
  C  C1307  1  0.67237440  0.90453745  0.32506141  1
  C  C1308  1  0.73789357  0.82785626  0.37394602  1
  O  O1309  1  0.60205618  0.92522212  0.32960068  1
  C  C1310  1  0.25994942  0.91684246  0.29502473  1
  H  H1311  1  0.26547416  0.83061613  0.47859685  1
  C  C1312  1  0.75066329  0.85375275  0.34856607  1
  C  C1313  1  0.29469111  0.80377798  0.26468272  1
  H  H1314  1  0.51359510  0.80563271  0.34371327  1
  C  C1315  1  0.17670800  0.87178577  0.35280463  1
  H  H1316  1  0.75155294  0.89091510  0.41931022  1
  H  H1317  1  0.78014103  0.79418775  0.29373222  1
  H  H1318  1  0.90178772  0.96454251  0.42222833  1
  H  H1319  1  0.44313182  0.80045355  0.44490952  1
  H  H1320  1  0.03951785  0.90409032  0.37135544  1
  C  C1321  1  0.19552854  0.82086244  0.39050906  1
  C  C1322  1  0.28938341  0.98472728  0.46203096  1
  H  H1323  1  0.82318951  0.85505150  0.32525358  1
  H  H1324  1  0.79479809  0.80826757  0.36964813  1
  H  H1325  1  0.77469744  0.93988998  0.36353826  1
  C  C1326  1  0.00333627  0.82883320  0.43771365  1
  H  H1327  1  0.27367544  0.81673842  0.37140722  1
  N  N1328  1  0.34941487  0.87037925  0.47367882  1
  H  H1329  1  0.11190504  0.86154084  0.27823446  1
  C  C1330  1  0.51389244  0.83314487  0.28448988  1
  C  C1331  1  0.03085764  0.85212124  0.40927693  1
  H  H1332  1  0.23510870  0.92027573  0.40582976  1
  N  N1333  1  0.06845862  0.80547554  0.44441177  1
  H  H1334  1  0.80290934  0.78655345  0.42531608  1
  C  C1335  1  0.07275572  0.83929644  0.26887712  1
  H  H1336  1  0.31635778  0.84190494  0.33162677  1
  C  C1337  1  0.28130148  0.86577201  0.32802797  1
  N  N1338  1  0.83113974  0.87633388  0.47282678  1
  C  C1339  1  0.73592354  0.92626686  0.47211118  1
  C  C1340  1  0.23038008  0.93867976  0.42900618  1
  H  H1341  1  0.49273542  0.84978112  0.43040945  1
  H  H1342  1  0.97502077  0.87233893  0.40722015  1
  H  H1343  1  0.42763826  0.90829510  0.46840810  1
  H  H1344  1  0.21422858  0.79241815  0.25822206  1
  C  C1345  1  0.32210758  0.77399032  0.33407402  1
  C  C1346  1  0.77693190  0.89983584  0.45257354  1
  N  N1347  1  0.14360533  0.93316195  0.45622564  1
  C  C1348  1  0.95127458  0.99709153  0.25916346  1
  C  C1349  1  0.71157676  0.75171693  0.46319716  1
  C  C1350  1  0.21553269  0.75705417  0.33315697  1
  C  C1351  1  0.67093041  0.75540150  0.32226020  1
  C  C1352  1  0.51980245  0.75828262  0.46994597  1
  H  H1353  1  0.72811373  0.75166545  0.35001042  1
  H  H1354  1  0.14796363  0.76258882  0.30883291  1
  C  C1355  1  0.20308697  0.97930055  0.49303833  1
  H  H1356  1  0.47049878  0.76211816  0.61252351  1
  H  H1357  1  0.90319305  0.90345786  0.72354632  1
  C  C1358  1  0.45234756  0.76698265  0.69859702  1
  H  H1359  1  0.49602504  0.84186714  0.63204736  1
  H  H1360  1  0.11907125  0.78574430  0.64068897  1
  H  H1361  1  0.83350348  0.84423687  0.62818735  1
  C  C1362  1  0.87964225  0.78624934  0.63019818  1
  O  O1363  1  0.91515123  0.80124587  0.66164336  1
  C  C1364  1  0.37917562  0.80335184  0.64773355  1
  C  C1365  1  0.48357682  0.82106234  0.65223206  1
  C  C1366  1  0.27915285  0.81491827  0.61931642  1
  C  C1367  1  0.10769469  0.76532353  0.52077729  1
  C  C1368  1  0.76296966  0.93101340  0.51655392  1
  H  H1369  1  0.62240991  0.78601271  0.51215031  1
  C  C1370  1  0.30947662  0.83688927  0.58791687  1
  H  H1371  1  0.84805244  0.90758814  0.56830291  1
  H  H1372  1  0.28700019  0.76184092  0.66709350  1
  H  H1373  1  0.98979603  0.81361251  0.58380678  1
  C  C1374  1  0.35804057  0.99452220  0.59532937  1
  C  C1375  1  0.78506506  0.83230419  0.60342892  1
  H  H1376  1  0.06605711  0.94412871  0.50948012  1
  C  C1377  1  0.35170405  0.92370059  0.70768244  1
  C  C1378  1  0.08111550  0.81851431  0.59170309  1
  C  C1379  1  0.36319191  0.77603789  0.67113653  1
  H  H1380  1  0.62204896  0.88761710  0.51373671  1
  C  C1381  1  0.80613842  0.80089686  0.59792424  1
  H  H1382  1  0.77925758  0.75965817  0.55965906  1
  H  H1383  1  0.02221851  0.99314272  0.71904739  1
  C  C1384  1  0.30323994  0.88415573  0.66669624  1
  C  C1385  1  0.70682385  0.84676537  0.57717335  1
  C  C1386  1  0.73261226  0.88339338  0.72332597  1
  C  C1387  1  0.85079050  0.96379700  0.67266668  1
  H  H1388  1  0.60017392  0.94582996  0.57483437  1
  C  C1389  1  0.07175932  0.97033155  0.64297552  1
  H  H1390  1  0.40016189  0.84695153  0.58730559  1
  C  C1391  1  0.83581026  0.89352697  0.74419678  1
  O  O1392  1  0.64323240  0.88374879  0.65230175  1
  H  H1393  1  0.69136923  0.87181029  0.58040819  1
  H  H1394  1  0.35600880  0.94862624  0.70917354  1
  N  N1395  1  0.31907625  0.91380462  0.66911901  1
  C  C1396  1  0.73498488  0.88872161  0.67236310  1
  H  H1397  1  0.28925571  0.77553741  0.57496089  1
  H  H1398  1  0.66012512  0.82326393  0.68234285  1
  O  O1399  1  0.88687066  0.75699618  0.63095765  1
  C  C1400  1  0.23278732  0.99649689  0.61320787  1
  C  C1401  1  0.82597787  0.90729607  0.53490793  1
  C  C1402  1  0.01479566  0.99969373  0.64556484  1
  Cu  Cu1403  1  0.87371170  0.78336628  0.71519186  1
  C  C1404  1  0.64763012  0.83003384  0.54397011  1
  H  H1405  1  0.23157781  0.86354704  0.53206868  1
  C  C1406  1  0.76122500  0.78471124  0.56222248  1
  C  C1407  1  0.65083062  0.86829436  0.74772110  1
  H  H1408  1  0.70500566  0.93539144  0.70129374  1
  C  C1409  1  0.65018992  0.99246116  0.59443147  1
  N  N1410  1  0.10525258  0.84103921  0.56408477  1
  H  H1411  1  0.89995175  0.85969430  0.52543502  1
  C  C1412  1  0.32809934  0.86208455  0.69815077  1
  C  C1413  1  0.18738286  0.96869179  0.62681310  1
  H  H1414  1  0.58684425  0.99377511  0.61919145  1
  H  H1415  1  0.15096155  0.78605389  0.53171325  1
  C  C1416  1  0.89641533  0.99362877  0.66641462  1
  C  C1417  1  0.57389304  0.81234429  0.67871298  1
  H  H1418  1  0.27427024  0.87948777  0.63398748  1
  C  C1419  1  0.09505674  0.99896378  0.73975170  1
  H  H1420  1  0.03279943  0.94968520  0.65402559  1
  H  H1421  1  0.57719919  0.85841032  0.72829345  1
  C  C1422  1  0.67559666  0.79906747  0.53685539  1
  H  H1423  1  0.23928289  0.94805913  0.62401418  1
  C  C1424  1  0.75090626  0.95807365  0.69557753  1
  O  O1425  1  0.82876777  0.89570799  0.65464373  1
  H  H1426  1  0.19251628  0.99215381  0.52268274  1
  C  C1427  1  0.16038167  0.80441649  0.61876379  1
  C  C1428  1  0.22075722  0.84724616  0.55922168  1
  C  C1429  1  0.55286029  0.78515664  0.70290937  1
  C  C1430  1  0.74372725  0.96277494  0.53792072  1
  C  C1431  1  0.66289351  0.96521970  0.57175535  1
  C  C1432  1  0.36659355  0.87282512  0.73948272  1
  N  N1433  1  0.68893053  0.97930395  0.71619504  1
  H  H1434  1  0.89735886  0.94428852  0.65640772  1
  H  H1435  1  0.42153854  0.81215404  0.74089344  1
  H  H1436  1  0.30295088  0.83890640  0.69094246  1
  O  O1437  1  0.72842133  0.79514111  0.74104417  1
  O  O1438  1  0.40497742  0.97116602  0.58416399  1
  C  C1439  1  0.82049773  0.98725308  0.52809726  1
  H  H1440  1  0.93231290  0.78695272  0.50415750  1
  C  C1441  1  0.54745432  0.84320308  0.51765553  1
  C  C1442  1  0.63906496  0.77825092  0.73621136  1
  C  C1443  1  0.54534331  0.87409641  0.50475291  1
  C  C1444  1  0.99207542  0.76663865  0.50616194  1
  C  C1445  1  0.37327024  0.90605888  0.74222696  1
  H  H1446  1  0.46467119  0.99657085  0.52811500  1
  C  C1447  1  0.85406154  0.88004338  0.51266032  1
  C  C1448  1  0.33353031  0.75363102  0.56498391  1
  C  C1449  1  0.44248742  0.82763085  0.50893480  1
  H  H1450  1  0.88703981  0.98215761  0.50500210  1
  H  H1451  1  0.43815762  0.80293533  0.51569064  1
  C  C1452  1  0.46571634  0.80642739  0.80797262  1
  C  C1453  1  0.84868804  0.88729944  0.78861981  1
  C  C1454  1  0.08406779  0.80313768  0.91767974  1
  O  O1455  1  0.51364969  0.77009655  0.87786752  1
  O  O1456  1  0.03606503  0.77163428  0.76256138  1
  C  C1457  1  0.68390137  0.85451944  0.93006070  1
  H  H1458  1  0.51124752  0.88803293  0.98496090  1
  C  C1459  1  0.09878503  0.92683328  0.77975906  1
  H  H1460  1  0.49281131  0.78207611  0.80420297  1
  N  N1461  1  0.77250201  0.96834734  0.85250908  1
  C  C1462  1  0.38871914  0.86578371  0.82195980  1
  H  H1463  1  0.47187687  0.99135876  0.89324342  1
  C  C1464  1  0.08169687  0.92172551  0.91973244  1
  H  H1465  1  0.71356457  0.95556649  0.79365868  1
  C  C1466  1  0.39898195  0.85409687  0.77739349  1
  C  C1467  1  0.64002852  0.98749393  0.96142715  1
  C  C1468  1  0.19860175  0.79713770  0.90027594  1
  C  C1469  1  0.13469562  0.77748438  0.78504725  1
  H  H1470  1  0.22347193  0.85175509  0.90202667  1
  H  H1471  1  0.58470340  0.84949650  0.81032410  1
  H  H1472  1  0.05575951  0.94832277  0.83843315  1
  C  C1473  1  0.54269974  0.91737659  0.85407639  1
  C  C1474  1  0.48438168  0.79756417  0.88566551  1
  H  H1475  1  0.21302358  0.78013739  0.98245501  1
  H  H1476  1  0.39840666  0.91868720  0.77182524  1
  C  C1477  1  0.45821275  0.81890126  0.84923684  1
  H  H1478  1  0.92058023  0.89977386  0.87074071  1
  H  H1479  1  0.13878457  0.85777769  0.75207577  1
  C  C1480  1  0.54099092  0.91865112  0.89974148  1
  H  H1481  1  0.34375121  0.88817327  0.82315525  1
  C  C1482  1  0.19563638  0.87254004  0.96171241  1
  C  C1483  1  0.41823908  0.84972490  0.85728041  1
  C  C1484  1  0.78743531  0.96779223  0.81024446  1
  C  C1485  1  0.18587275  0.87177729  0.91785202  1
  C  C1486  1  0.07238395  0.80969656  0.96405397  1
  H  H1487  1  0.16431707  0.85207374  0.83755896  1
  O  O1488  1  0.22242419  0.77168911  0.76767646  1
  H  H1489  1  0.40112907  0.86054395  0.88927556  1
  H  H1490  1  0.61908156  0.91070071  0.91757334  1
  H  H1491  1  0.31266742  0.78876100  0.84609436  1
  H  H1492  1  0.89526806  0.80712971  0.90038799  1
  C  C1493  1  0.13228327  0.89624263  0.89612860  1
  C  C1494  1  0.09447864  0.92589512  0.82433940  1
  C  C1495  1  0.35931545  0.94459977  0.89554493  1
  C  C1496  1  0.44737497  0.93230894  0.92291512  1
  H  H1497  1  0.62077255  0.84367999  0.95130893  1
  C  C1498  1  0.84320383  0.88934100  0.88626826  1
  C  C1499  1  0.98680158  0.80409532  0.88927526  1
  H  H1500  1  0.27170653  0.95277362  0.90760639  1
  C  C1501  1  0.65984190  0.86242266  0.79191759  1
  C  C1502  1  0.12122156  0.89909632  0.84945199  1
  C  C1503  1  0.37859307  0.94699519  0.85181880  1
  C  C1504  1  0.75834140  0.87237227  0.86430045  1
  H  H1505  1  0.61031333  0.90787811  0.83461024  1
  C  C1506  1  0.96629441  0.99423834  0.85681205  1
  H  H1507  1  0.27440932  0.80100335  0.92195665  1
  C  C1508  1  0.75676293  0.87387936  0.81449977  1
  H  H1509  1  0.94086507  0.84392782  0.95562640  1
  N  N1510  1  0.46631328  0.93444411  0.83169283  1
  C  C1511  1  0.97896388  0.99389114  0.81065459  1
  C  C1512  1  0.67335084  0.85441998  0.88525581  1
  H  H1513  1  0.05615102  0.94116729  0.90178066  1
  C  C1514  1  0.12031246  0.78785558  0.83088598  1
  H  H1515  1  0.61050649  0.84026690  0.86618422  1
  C  C1516  1  0.44860222  0.93354450  0.97205824  1
  Cu  Cu1517  1  0.66183291  0.75240445  0.89432799  1
  C  C1518  1  0.07852477  0.92038364  0.96330622  1
  H  H1519  1  0.93602412  0.79158689  0.82505174  1
  C  C1520  1  0.13528536  0.87659076  0.77663851  1
  C  C1521  1  0.86443613  0.98058267  0.87368386  1
  H  H1522  1  0.31897402  0.95762556  0.82867554  1
  H  H1523  1  0.93428033  0.89407877  0.80125416  1
  C  C1524  1  0.14409535  0.87399317  0.82137005  1
  C  C1525  1  0.88288913  0.98117982  0.78834003  1
  H  H1526  1  0.89687113  0.90057688  0.95561241  1
  H  H1527  1  0.24192011  0.85510295  0.97870212  1
  C  C1528  1  0.14459877  0.79500496  0.99491180  1
  O  O1529  1  0.47972071  0.80769617  0.92130713  1
  H  H1530  1  0.38055210  0.97966787  0.97002567  1
  C  C1531  1  0.22152094  0.79001040  0.85738594  1
  C  C1532  1  0.83886518  0.88874584  0.93208572  1
  H  H1533  1  0.87109976  0.97918036  0.75338554  1
  C  C1534  1  0.00882960  0.79375953  0.84789135  1
  H  H1535  1  0.04015850  0.93924953  0.98377546  1
  H  H1536  1  0.84768067  0.97721776  0.90897109  1
  H  H1537  1  0.08243491  0.94801531  0.75859885  1
  C  C1538  1  0.42862740  0.82274842  0.77196006  1
  N  N1539  1  0.75953604  0.87206821  0.95344966  1
  C  C1540  1  0.14633700  0.89727431  0.98406620  1
  H  H1541  1  0.57662125  0.97202479  0.94596685  1
  C  C1542  1  0.98676313  0.83095024  0.97981127  1
  H  H1543  1  0.83321985  0.81447360  0.99845470  1
  H  H1544  1  0.18525877  0.98000371  0.99382689  1
  H  H1545  1  0.78275101  0.76290786  0.97166129  1
  N  N1546  1  0.71054207  0.96940811  0.98364541  1
  N  N1547  1  0.10844942  0.90179544  0.75568653  1
  C  C1548  1  0.72386082  0.77390109  0.99360039  1
  C  C1549  1  0.49217775  0.90969359  0.99913782  1
  C  C1550  1  0.41178406  0.96183017  0.99329943  1
  O  O1551  1  0.63261160  0.75229333  0.75236787  1
