# generated using pymatgen
data_CuH24(C6N)4
_symmetry_space_group_name_H-M   'P 1'
_cell_length_a   30.72043549
_cell_length_b   15.08973838
_cell_length_c   15.16799314
_cell_angle_alpha   90.00000000
_cell_angle_beta   90.00000000
_cell_angle_gamma   90.00000000
_symmetry_Int_Tables_number   1
_chemical_formula_structural   CuH24(C6N)4
_chemical_formula_sum   'Cu16 H384 C384 N64'
_cell_volume   7031.32547926
_cell_formula_units_Z   16
loop_
 _symmetry_equiv_pos_site_id
 _symmetry_equiv_pos_as_xyz
  1  'x, y, z'
loop_
 _atom_site_type_symbol
 _atom_site_label
 _atom_site_symmetry_multiplicity
 _atom_site_fract_x
 _atom_site_fract_y
 _atom_site_fract_z
 _atom_site_occupancy
  H  H0  1  0.15678631  0.29643938  0.09356667  1
  C  C1  1  0.09861934  0.15084121  0.46141989  1
  N  N2  1  0.24423795  0.22576039  0.45471506  1
  H  H3  1  0.21913067  0.13674493  0.37859861  1
  H  H4  1  0.03782643  0.12993656  0.39226368  1
  C  C5  1  0.07144591  0.00479789  0.27000747  1
  C  C6  1  0.14302522  0.03529611  0.35360657  1
  H  H7  1  0.07108578  0.41769016  0.21510740  1
  C  C8  1  0.07310923  0.11492045  0.39510699  1
  C  C9  1  0.20348550  0.20289445  0.02978611  1
  C  C10  1  0.17617172  0.23363541  0.09649656  1
  H  H11  1  0.05407015  0.29154832  0.45498287  1
  C  C12  1  0.24617061  0.25076323  0.29493277  1
  H  H13  1  0.14814787  0.09401917  0.07805891  1
  C  C14  1  0.16408305  0.07302048  0.42703620  1
  C  C15  1  0.00092756  0.37742457  0.27944870  1
  H  H16  1  0.18769724  0.31430537  0.42611166  1
  H  H17  1  0.22945277  0.29958760  0.15000496  1
  H  H18  1  0.24174738  0.22243326  0.22537855  1
  C  C19  1  0.04223920  0.25058272  0.18055372  1
  H  H20  1  0.11242225  0.49073474  0.19790933  1
  H  H21  1  0.15286711  0.20155127  0.23673531  1
  C  C22  1  0.14346690  0.39539322  0.33134546  1
  C  C23  1  0.03046151  0.33238496  0.42352023  1
  N  N24  1  0.19815596  0.11597771  0.18835587  1
  C  C25  1  0.17210386  0.18368423  0.17753835  1
  C  C26  1  0.03111264  0.32045286  0.32173285  1
  H  H27  1  0.09188369  0.42870213  0.01751974  1
  H  H28  1  0.19896854  0.08034128  0.24724095  1
  H  H29  1  0.03520323  0.40221916  0.44198576  1
  H  H30  1  0.03679156  0.02858686  0.26187831  1
  C  C31  1  0.22775080  0.08299397  0.12969509  1
  H  H32  1  0.07736317  0.20725326  0.29832851  1
  C  C33  1  0.10851290  0.45313393  0.33145869  1
  C  C34  1  0.05167143  0.25133518  0.27089133  1
  H  H35  1  0.15584841  0.36060715  0.27426347  1
  H  H36  1  0.05915055  0.20998645  0.13154758  1
  C  C37  1  0.23556416  0.20180441  0.37036428  1
  C  C38  1  0.16107962  0.36843502  0.41502724  1
  C  C39  1  0.12748166  0.03691358  0.05766774  1
  C  C40  1  0.09696498  0.05118011  0.34486305  1
  N  N41  1  0.17677701  0.47077423  0.05112674  1
  N  N42  1  0.01168674  0.30298693  0.14383509  1
  N  N43  1  0.14095297  0.13067437  0.47615412  1
  C  C44  1  0.22912518  0.12582144  0.04817475  1
  C  C45  1  0.08578695  0.47804397  0.24280174  1
  H  H46  1  0.02548109  0.03121889  0.02808867  1
  H  H47  1  0.19704296  0.06982131  0.45335813  1
  C  C48  1  0.12122643  0.47122684  0.49064128  1
  H  H49  1  0.18950969  0.46946793  0.17638706  1
  N  N50  1  0.08605032  0.05728034  0.05047183  1
  H  H51  1  0.24566234  0.02546320  0.15931493  1
  C  C52  1  0.05722776  0.00318489  0.01796648  1
  H  H53  1  0.23015516  0.40318840  0.10331668  1
  C  C54  1  0.10014168  0.49340131  0.41401580  1
  H  H55  1  0.23843136  0.01975523  0.36030966  1
  H  H56  1  0.08597036  0.01321576  0.20417517  1
  N  N57  1  0.15438511  0.41207643  0.49094801  1
  H  H58  1  0.10490792  0.29542017  0.51376336  1
  H  H59  1  0.17566513  0.40808762  0.64798102  1
  C  C60  1  0.20605317  0.24921021  0.93918124  1
  H  H61  1  0.18341628  0.22937760  0.52286647  1
  C  C62  1  0.24935584  0.29820327  0.90852288  1
  C  C63  1  0.09325110  0.03106286  0.81348612  1
  H  H64  1  0.09857816  0.24157611  0.75083449  1
  C  C65  1  0.07893635  0.42159017  0.86961160  1
  H  H66  1  0.00875952  0.34106228  0.84076718  1
  H  H67  1  0.19646941  0.19663521  0.89194737  1
  H  H68  1  0.23956674  0.24297533  0.67482149  1
  C  C69  1  0.10566306  0.25842962  0.89486176  1
  H  H70  1  0.11243488  0.18970936  0.92024194  1
  N  N71  1  0.24173400  0.39195378  0.63325118  1
  C  C72  1  0.08325795  0.37205569  0.79096031  1
  C  C73  1  0.07249500  0.21239610  0.60588082  1
  H  H74  1  0.01833959  0.33725190  0.96195886  1
  H  H75  1  0.09320822  0.46117264  0.68450091  1
  H  H76  1  0.03686112  0.19879856  0.93379373  1
  H  H77  1  0.11372393  0.06961781  0.64245626  1
  C  C78  1  0.09914228  0.28666547  0.80619950  1
  H  H79  1  0.01484315  0.03535057  0.87667679  1
  H  H80  1  0.02848394  0.13851901  0.68355507  1
  C  C81  1  0.18934846  0.15358339  0.74734832  1
  C  C82  1  0.09186911  0.39116008  0.95438208  1
  H  H83  1  0.16347261  0.13833890  0.59668400  1
  C  C84  1  0.20691325  0.38466834  0.68378131  1
  H  H85  1  0.17526754  0.20582433  0.78803048  1
  N  N86  1  0.23972137  0.12285609  0.63142019  1
  C  C87  1  0.22064941  0.04591201  0.61943472  1
  H  H88  1  0.03330817  0.25763846  0.71369842  1
  C  C89  1  0.22299562  0.17869539  0.68910238  1
  H  H90  1  0.08115583  0.10126801  0.81046993  1
  C  C91  1  0.04328853  0.20384282  0.66860759  1
  C  C92  1  0.15472298  0.19117996  0.54950188  1
  C  C93  1  0.20740869  0.36336937  0.77499827  1
  H  H94  1  0.17783734  0.36053151  0.81356312  1
  C  C95  1  0.17406942  0.06432110  0.74894620  1
  N  N96  1  0.10739385  0.31140599  0.96552583  1
  C  C97  1  0.10401875  0.22443679  0.53694657  1
  C  C98  1  0.24676701  0.33202139  0.81176470  1
  H  H99  1  0.13768586  0.49504843  0.79156345  1
  C  C100  1  0.02662380  0.46696050  0.69952092  1
  H  H101  1  0.18071971  0.30339286  0.92686290  1
  C  C102  1  0.07184753  0.41074063  0.70071402  1
  H  H103  1  0.07090190  0.36279722  0.64459679  1
  C  C104  1  0.14433532  0.02524078  0.82259298  1
  H  H105  1  0.16487218  0.46692516  0.92810481  1
  C  C106  1  0.00186292  0.21449229  0.91695860  1
  H  H107  1  0.23266679  0.01588822  0.55719911  1
  H  H108  1  0.15670247  0.06360722  0.88164609  1
  C  C109  1  0.19111649  0.01086492  0.68178189  1
  C  C110  1  0.09446305  0.00962318  0.64519923  1
  H  H111  1  0.06820469  0.49204043  0.86231810  1
  H  H112  1  0.24986752  0.09856209  0.99953214  1
  C  C113  1  0.18235422  0.85805949  0.27712194  1
  C  C114  1  0.13442717  0.73067159  0.35572720  1
  C  C115  1  0.17711731  0.61160821  0.12955109  1
  H  H116  1  0.24385501  0.61139428  0.22329144  1
  C  C117  1  0.16319462  0.76191217  0.04866197  1
  C  C118  1  0.00004564  0.55899254  0.11496438  1
  H  H119  1  0.00687576  0.69784171  0.34887791  1
  H  H120  1  0.00348687  0.93567035  0.17614711  1
  N  N121  1  0.21110335  0.61136439  0.35677439  1
  H  H122  1  0.18707710  0.50194016  0.41803888  1
  C  C123  1  0.17970207  0.51749856  0.12666671  1
  C  C124  1  0.03770658  0.79017619  0.18720403  1
  C  C125  1  0.14043625  0.74018683  0.26535186  1
  C  C126  1  0.18308997  0.84804537  0.36980320  1
  H  H127  1  0.10331780  0.87131506  0.27205265  1
  H  H128  1  0.23878664  0.62704174  0.06377105  1
  C  C129  1  0.07489755  0.58322498  0.08759366  1
  H  H130  1  0.07672302  0.54928358  0.42024676  1
  H  H131  1  0.12441324  0.69850146  0.20994763  1
  H  H132  1  0.06528201  0.61698157  0.28094807  1
  C  C133  1  0.02494437  0.70350821  0.41607702  1
  C  C134  1  0.22977039  0.68784695  0.37172063  1
  C  C135  1  0.15553664  0.78766363  0.41767841  1
  H  H136  1  0.17729785  0.94065296  0.03068748  1
  H  H137  1  0.18648826  0.64302133  0.19049051  1
  H  H138  1  0.16010267  0.98610693  0.31135715  1
  H  H139  1  0.06851680  0.78712009  0.14468264  1
  C  C140  1  0.00048868  0.74501622  0.15730755  1
  H  H141  1  0.10887230  0.57831208  0.09890237  1
  N  N142  1  0.16142822  0.80341440  0.22387216  1
  H  H143  1  0.15832629  0.79345277  0.11486311  1
  H  H144  1  0.04759376  0.75537482  0.43307653  1
  H  H145  1  0.02184806  0.54465975  0.28967201  1
  H  H146  1  0.07703399  0.90551100  0.36778184  1
  C  C147  1  0.21099801  0.55509237  0.42737250  1
  H  H148  1  0.20076924  0.90357491  0.23317652  1
  C  C149  1  0.07264885  0.90079755  0.29526685  1
  H  H150  1  0.11374102  0.67314136  0.37548859  1
  N  N151  1  0.02211508  0.64087555  0.47623642  1
  C  C152  1  0.04238297  0.57371125  0.15133799  1
  C  C153  1  0.05177925  0.55830011  0.24889249  1
  C  C154  1  0.03442582  0.84424396  0.26507153  1
  H  H155  1  0.20672456  0.88899562  0.40633450  1
  C  C156  1  0.17042816  0.66063528  0.05095968  1
  H  H157  1  0.22319557  0.72117130  0.30613959  1
  C  C158  1  0.14251347  0.95522655  0.02689630  1
  H  H159  1  0.19385236  0.78786399  0.02053520  1
  H  H160  1  0.14122230  0.79155484  0.91406796  1
  H  H161  1  0.17916093  0.94502087  0.67920897  1
  H  H162  1  0.04386530  0.88096952  0.94946546  1
  H  H163  1  0.07354827  0.62187853  0.67163154  1
  C  C164  1  0.23590550  0.73718922  0.90196577  1
  H  H165  1  0.22469626  0.64740279  0.67318017  1
  H  H166  1  0.04090203  0.87495298  0.79470313  1
  H  H167  1  0.20144395  0.71740469  0.57988746  1
  H  H168  1  0.23804544  0.52072587  0.55739082  1
  C  C169  1  0.05452907  0.59924677  0.61500270  1
  C  C170  1  0.02694513  0.52207979  0.61520729  1
  H  H171  1  0.17446476  0.54583631  0.64639964  1
  N  N172  1  0.05393868  0.89429913  0.57556733  1
  C  C173  1  0.15032403  0.58929893  0.67634360  1
  N  N174  1  0.10964688  0.61225315  0.81150375  1
  H  H175  1  0.11069211  0.79221035  0.53026484  1
  C  C176  1  0.04193783  0.86343177  0.65277262  1
  C  C177  1  0.05274665  0.65675820  0.54448814  1
  H  H178  1  0.19442003  0.74083818  0.78247143  1
  H  H179  1  0.07772567  0.72530305  0.82977960  1
  C  C180  1  0.23049353  0.91649093  0.87161550  1
  N  N181  1  0.21092914  0.86275154  0.81249931  1
  C  C182  1  0.14209780  0.67690699  0.65220690  1
  H  H183  1  0.15827611  0.64641766  0.91351336  1
  H  H184  1  0.10794759  0.80158356  0.69346563  1
  N  N185  1  0.02398322  0.57723158  0.96625964  1
  C  C186  1  0.10150991  0.69485513  0.78597695  1
  C  C187  1  0.06829647  0.92015209  0.98515391  1
  C  C188  1  0.13232275  0.56014205  0.75684747  1
  C  C189  1  0.11799982  0.73325219  0.70696138  1
  C  C190  1  0.05488867  0.90020799  0.73375025  1
  H  H191  1  0.00881970  0.68218184  0.89069038  1
  C  C192  1  0.08099590  0.97555833  0.72792945  1
  H  H193  1  0.16368756  0.84558309  0.54583928  1
  H  H194  1  0.15060253  0.95250410  0.82943044  1
  H  H195  1  0.08889259  0.59375571  0.94608868  1
  C  C196  1  0.21287683  0.77638297  0.83041756  1
  C  C197  1  0.07989891  0.96569136  0.56782161  1
  H  H198  1  0.23749070  0.66511560  0.91407023  1
  H  H199  1  0.02228077  0.80109122  0.65131746  1
  H  H200  1  0.22762255  0.98310517  0.84162291  1
  H  H201  1  0.11435186  0.50237603  0.55285237  1
  C  C202  1  0.06329338  0.58858079  0.99773180  1
  H  H203  1  0.07102587  0.71997172  0.53880353  1
  C  C204  1  0.16725332  0.70066567  0.56498090  1
  C  C205  1  0.16741599  0.61252233  0.97320848  1
  H  H206  1  0.07751566  0.99546128  0.87141255  1
  H  H207  1  0.02313662  0.51083933  0.75763461  1
  H  H208  1  0.08668204  0.98678635  0.50122679  1
  C  C209  1  0.12734713  0.79527644  0.98345044  1
  H  H210  1  0.09707668  0.75126797  0.98523354  1
  C  C211  1  0.11242768  0.89277790  0.99706288  1
  C  C212  1  0.14839084  0.78528043  0.51852320  1
  C  C213  1  0.16872668  0.51794760  0.98018139  1
  C  C214  1  0.23641734  0.57078076  0.50431218  1
  H  H215  1  0.16684704  0.64038324  0.52305538  1
  C  C216  1  0.26058592  0.33931010  0.30417628  1
  H  H217  1  0.34882821  0.46272840  0.45713262  1
  H  H218  1  0.47389324  0.02804972  0.04187015  1
  C  C219  1  0.38987726  0.01199877  0.46432526  1
  H  H220  1  0.43621077  0.28043071  0.07635926  1
  H  H221  1  0.33423115  0.23901272  0.30726154  1
  H  H222  1  0.29950621  0.15049144  0.35768315  1
  C  C223  1  0.45805684  0.49848811  0.44301303  1
  H  H224  1  0.27702375  0.45840501  0.23707243  1
  H  H225  1  0.49068745  0.00235079  0.29102315  1
  C  C226  1  0.37634477  0.34842074  0.22174567  1
  C  C227  1  0.33135573  0.18083830  0.34847336  1
  H  H228  1  0.42527164  0.08728065  0.21659014  1
  C  C229  1  0.46803591  0.15428614  0.12245366  1
  H  H230  1  0.41198835  0.46745719  0.33179768  1
  C  C231  1  0.39972716  0.30177679  0.27694182  1
  C  C232  1  0.43404031  0.20654173  0.07005562  1
  C  C233  1  0.46582810  0.44272748  0.06180199  1
  C  C234  1  0.43362150  0.03970378  0.45933171  1
  C  C235  1  0.29342842  0.32597985  0.09535970  1
  C  C236  1  0.26491167  0.39151541  0.22809281  1
  H  H237  1  0.35631320  0.29256113  0.45725065  1
  N  N238  1  0.34853008  0.07459505  0.09637987  1
  C  C239  1  0.42485019  0.25185045  0.33428814  1
  H  H240  1  0.46417946  0.44510352  0.20909565  1
  C  C241  1  0.41024714  0.17203385  0.37507311  1
  H  H242  1  0.37393770  0.33247531  0.15015234  1
  C  C243  1  0.45933236  0.09711731  0.19464149  1
  C  C244  1  0.48021292  0.40681061  0.15258039  1
  C  C245  1  0.44187897  0.11980915  0.41542044  1
  H  H246  1  0.45867228  0.27465660  0.34344547  1
  C  C247  1  0.26720041  0.36724618  0.39348288  1
  H  H248  1  0.30012187  0.47034587  0.07475865  1
  H  H249  1  0.35698983  0.13287170  0.21009508  1
  N  N250  1  0.36527777  0.14300973  0.38649796  1
  C  C251  1  0.31270557  0.24461927  0.07681989  1
  H  H252  1  0.40187166  0.18848453  0.09433563  1
  H  H253  1  0.47622704  0.14032155  0.40574582  1
  H  H254  1  0.36223260  0.41289955  0.23777729  1
  H  H255  1  0.27461805  0.43735239  0.40477531  1
  C  C256  1  0.49256443  0.04493832  0.23141155  1
  C  C257  1  0.35468517  0.06450760  0.18223530  1
  C  C258  1  0.35514774  0.06490606  0.43277606  1
  C  C259  1  0.25008022  0.35606703  0.13989246  1
  H  H260  1  0.29946846  0.17992860  0.10224000  1
  H  H261  1  0.47036628  0.33654202  0.15749420  1
  C  C262  1  0.26028461  0.30707154  0.46288418  1
  H  H263  1  0.32120710  0.04487883  0.43945090  1
  C  C264  1  0.35004743  0.00072623  0.05361809  1
  C  C265  1  0.31322595  0.40502853  0.06489941  1
  C  C266  1  0.35154398  0.39666017  0.01350651  1
  C  C267  1  0.34422503  0.24514746  0.01019412  1
  H  H268  1  0.43877460  0.46645783  0.49549790  1
  C  C269  1  0.33691377  0.14641482  0.64254838  1
  C  C270  1  0.47289531  0.09000042  0.70464680  1
  C  C271  1  0.49315543  0.26587317  0.67695151  1
  H  H272  1  0.27915813  0.04034368  0.73549679  1
  H  H273  1  0.26596996  0.49402294  0.74031318  1
  H  H274  1  0.31636629  0.45064135  0.87073060  1
  H  H275  1  0.40523150  0.17365377  0.66362062  1
  H  H276  1  0.38845029  0.49508452  0.70291603  1
  C  C277  1  0.30783538  0.00328683  0.70676529  1
  H  H278  1  0.39788820  0.15919024  0.55108543  1
  H  H279  1  0.32273440  0.18032161  0.70047181  1
  N  N280  1  0.37030870  0.47932264  0.57833897  1
  H  H281  1  0.31132965  0.15713545  0.58926472  1
  H  H282  1  0.39794482  0.32101233  0.72800703  1
  C  C283  1  0.28407823  0.33431579  0.75583771  1
  H  H284  1  0.26550162  0.32511898  0.53554295  1
  C  C285  1  0.44122345  0.18471387  0.96829574  1
  H  H286  1  0.45951599  0.36676039  0.84524519  1
  C  C287  1  0.37525198  0.28703901  0.60018037  1
  C  C288  1  0.27981837  0.36333765  0.66816639  1
  C  C289  1  0.34245757  0.04658365  0.66516649  1
  H  H290  1  0.42658733  0.45034893  0.76807972  1
  H  H291  1  0.31718876  0.31811523  0.78198373  1
  C  C292  1  0.42473649  0.08792393  0.95348740  1
  H  H293  1  0.42405781  0.22998859  0.92356875  1
  C  C294  1  0.36287232  0.33023918  0.52173381  1
  H  H295  1  0.47598213  0.02152303  0.72958883  1
  C  C296  1  0.38527644  0.34845472  0.66584139  1
  H  H297  1  0.30619462  0.38023139  0.62139705  1
  H  H298  1  0.25355523  0.35729499  0.95134824  1
  H  H299  1  0.47543209  0.18971494  0.95280212  1
  C  C300  1  0.46098441  0.15860720  0.76125666  1
  H  H301  1  0.37328603  0.45033524  0.98967260  1
  N  N302  1  0.36672251  0.32035860  0.98892000  1
  C  C303  1  0.45843843  0.40287904  0.90765090  1
  H  H304  1  0.37550482  0.12668833  0.85664655  1
  H  H305  1  0.40886970  0.02029696  0.61246077  1
  C  C306  1  0.38123173  0.18595283  0.61068022  1
  N  N307  1  0.47078484  0.24323893  0.75028708  1
  C  C308  1  0.49574557  0.48500395  0.62286368  1
  H  H309  1  0.44455477  0.15375910  0.82422665  1
  C  C310  1  0.39515840  0.07331029  0.88329646  1
  C  C311  1  0.38352737  0.44085191  0.65405752  1
  C  C312  1  0.48832955  0.11696693  0.61972620  1
  C  C313  1  0.35712746  0.42309178  0.51469060  1
  H  H314  1  0.46060264  0.48770730  0.64257737  1
  H  H315  1  0.35719521  0.18455194  0.98243736  1
  N  N316  1  0.44295093  0.49029145  0.89641757  1
  H  H317  1  0.27985020  0.25661795  0.92341227  1
  C  C318  1  0.47366119  0.38174148  0.99176841  1
  C  C319  1  0.44713918  0.01792226  0.99151565  1
  H  H320  1  0.34592957  0.01601645  0.98390674  1
  H  H321  1  0.49095132  0.31864996  0.99908735  1
  C  C322  1  0.27896933  0.60673850  0.21949764  1
  C  C323  1  0.32116719  0.87398066  0.46789293  1
  H  H324  1  0.29134903  0.58761178  0.36494827  1
  H  H325  1  0.28398072  0.60834354  0.00437498  1
  H  H326  1  0.44869258  0.89843349  0.23672208  1
  H  H327  1  0.34602129  0.75894562  0.19770539  1
  N  N328  1  0.34680963  0.58463708  0.29112891  1
  C  C329  1  0.36128750  0.98673137  0.23079498  1
  H  H330  1  0.37012312  0.75149712  0.35885625  1
  C  C331  1  0.30395164  0.58693094  0.29622832  1
  C  C332  1  0.42190734  0.69585804  0.02539090  1
  H  H333  1  0.25769650  0.78679647  0.10429239  1
  C  C334  1  0.35889987  0.90107719  0.18480866  1
  H  H335  1  0.36867744  0.98507911  0.30006179  1
  C  C336  1  0.25323322  0.71615590  0.44908310  1
  C  C337  1  0.34528116  0.60215796  0.13396420  1
  C  C338  1  0.32379161  0.87093764  0.37575580  1
  C  C339  1  0.49578035  0.54611928  0.46687106  1
  H  H340  1  0.35375820  0.86149024  0.04688496  1
  H  H341  1  0.40130331  0.57194398  0.22225289  1
  H  H342  1  0.45017824  0.70906455  0.43649502  1
  C  C343  1  0.35512214  0.91790570  0.09101315  1
  H  H344  1  0.28684636  0.91333454  0.25787438  1
  C  C345  1  0.44961007  0.52928687  0.05022624  1
  C  C346  1  0.30094566  0.62251289  0.13910316  1
  C  C347  1  0.47804239  0.86526195  0.25597592  1
  H  H348  1  0.36064071  0.60931196  0.06999223  1
  C  C349  1  0.42148451  0.74969906  0.09618702  1
  H  H350  1  0.39559000  0.65731622  0.47634392  1
  C  C351  1  0.27324400  0.64826513  0.05845672  1
  H  H352  1  0.26980599  0.78174558  0.44582834  1
  H  H353  1  0.43717944  0.87093104  0.00911637  1
  C  C354  1  0.36328252  0.81987422  0.32933649  1
  H  H355  1  0.39133494  0.86440319  0.35059864  1
  H  H356  1  0.41579604  0.82348869  0.08948501  1
  H  H357  1  0.44122696  0.56922984  0.10599179  1
  C  C358  1  0.35854585  0.81880002  0.23062041  1
  C  C359  1  0.36597711  0.57982693  0.21398226  1
  C  C360  1  0.27410102  0.75493461  0.04931148  1
  H  H361  1  0.43625172  0.72729994  0.16098385  1
  N  N362  1  0.45654146  0.54789000  0.29499431  1
  C  C363  1  0.28970992  0.91413989  0.33216092  1
  H  H364  1  0.49886198  0.63667633  0.25618681  1
  C  C365  1  0.44183534  0.50065518  0.35639143  1
  H  H366  1  0.30910656  0.77160877  0.05231090  1
  C  C367  1  0.26339403  0.97075742  0.38243144  1
  N  N368  1  0.25922453  0.96655952  0.46895727  1
  H  H369  1  0.48672329  0.94027983  0.46847709  1
  C  C370  1  0.49002243  0.59913115  0.31546222  1
  C  C371  1  0.42578827  0.68867141  0.49022841  1
  H  H372  1  0.49584691  0.62657532  0.58862983  1
  N  N373  1  0.34258635  0.86235932  0.68747434  1
  C  C374  1  0.46414378  0.77462851  0.73823869  1
  H  H375  1  0.40100506  0.71606237  0.77558331  1
  H  H376  1  0.30565394  0.59564142  0.60882436  1
  C  C377  1  0.47003131  0.98895320  0.50962390  1
  C  C378  1  0.30460578  0.68906792  0.81515687  1
  H  H379  1  0.34883330  0.79745878  0.69494798  1
  H  H380  1  0.34432549  0.69609842  0.93990057  1
  C  C381  1  0.48331076  0.76163837  0.58209797  1
  C  C382  1  0.42255834  0.64443768  0.95348430  1
  N  N383  1  0.44158011  0.71741450  0.56675145  1
  C  C384  1  0.49332458  0.79442975  0.66654712  1
  H  H385  1  0.41563884  0.56992734  0.80320748  1
  C  C386  1  0.32951319  0.65621110  0.88649988  1
  C  C387  1  0.37922235  0.90397164  0.65429794  1
  C  C388  1  0.28818977  0.91872572  0.51408439  1
  H  H389  1  0.44548669  0.80564641  0.86987540  1
  H  H390  1  0.37474400  0.95306612  0.80002296  1
  H  H391  1  0.37988106  0.67248038  0.61094665  1
  N  N392  1  0.33470046  0.56904248  0.90072223  1
  H  H393  1  0.25134298  0.75082119  0.69295744  1
  C  C394  1  0.39158880  0.98571050  0.85308003  1
  H  H395  1  0.40473938  0.85859247  0.64105382  1
  C  C396  1  0.41164205  0.70714736  0.63524825  1
  N  N397  1  0.40806076  0.91717901  0.90017626  1
  C  C398  1  0.47666916  0.80034149  0.83308341  1
  H  H399  1  0.31235995  0.71282349  0.58709106  1
  C  C400  1  0.25744184  0.67495807  0.67954158  1
  C  C401  1  0.28839341  0.66052020  0.59807868  1
  C  C402  1  0.42375930  0.73231969  0.72164177  1
  H  H403  1  0.48557986  0.56968290  0.79912764  1
  C  C404  1  0.43121747  0.93140716  0.97270836  1
  C  C405  1  0.31193331  0.51712016  0.85255095  1
  C  C406  1  0.27890240  0.63179382  0.76229500  1
  C  C407  1  0.31116025  0.91097346  0.72060444  1
  H  H408  1  0.45692613  0.94429512  0.56377564  1
  H  H409  1  0.49310065  0.65800363  0.87366950  1
  H  H410  1  0.41737205  0.67525996  0.88816964  1
  H  H411  1  0.30216507  0.76287130  0.81014320  1
  H  H412  1  0.28117967  0.92081503  0.58651328  1
  C  C413  1  0.28408276  0.54081277  0.78257156  1
  C  C414  1  0.37926309  0.99340539  0.64051972  1
  C  C415  1  0.25573853  0.79346184  0.96349389  1
  H  H416  1  0.28785791  0.86784452  0.75509038  1
  H  H417  1  0.49430811  0.86264939  0.83605620  1
  C  C418  1  0.25292610  0.88536904  0.94444945  1
  C  C419  1  0.42591534  0.50052230  0.81697507  1
  H  H420  1  0.34373366  0.83670260  0.50987757  1
  C  C421  1  0.44136961  0.55681683  0.96495812  1
  H  H422  1  0.26440684  0.93570006  0.98843895  1
  C  C423  1  0.25832880  0.65320915  0.51485206  1
  H  H424  1  0.38637639  0.94807309  0.50027047  1
  H  H425  1  0.64489367  0.39089142  0.28817839  1
  C  C426  1  0.51214420  0.15648501  0.09650050  1
  H  H427  1  0.69535519  0.27838184  0.36820708  1
  C  C428  1  0.68586018  0.28327261  0.12236561  1
  Cu  Cu429  1  0.61692020  0.41131496  0.10000160  1
  C  C430  1  0.53021881  0.32620997  0.40573407  1
  H  H431  1  0.61917839  0.23264344  0.09936548  1
  C  C432  1  0.56663029  0.27904092  0.24791037  1
  C  C433  1  0.53225700  0.40760453  0.16324366  1
  C  C434  1  0.69207766  0.27590393  0.29658535  1
  C  C435  1  0.59889749  0.23372554  0.03982183  1
  H  H436  1  0.67869961  0.29569702  0.05166511  1
  H  H437  1  0.57849691  0.12385639  0.13758058  1
  C  C438  1  0.54416689  0.11170579  0.14477365  1
  C  C439  1  0.72194539  0.22170147  0.24539402  1
  C  C440  1  0.57659372  0.24168527  0.32999203  1
  H  H441  1  0.52601223  0.20964782  0.04828817  1
  H  H442  1  0.74655170  0.33883329  0.04166302  1
  C  C443  1  0.59078687  0.06872028  0.43781811  1
  H  H444  1  0.59939122  0.19080071  0.34263021  1
  H  H445  1  0.73941297  0.18811004  0.10600672  1
  C  C446  1  0.66547038  0.33879053  0.25804951  1
  N  N447  1  0.66000387  0.33929909  0.16852885  1
  Cu  Cu448  1  0.70616642  0.46305973  0.08467992  1
  C  C449  1  0.52260059  0.38082828  0.33014027  1
  H  H450  1  0.54541924  0.37137729  0.10600609  1
  N  N451  1  0.55706057  0.25975686  0.40761834  1
  H  H452  1  0.57703157  0.24479563  0.18537567  1
  C  C453  1  0.68437697  0.01872801  0.44497002  1
  N  N454  1  0.53298103  0.05776595  0.20851173  1
  C  C455  1  0.71801611  0.22546044  0.15102374  1
  H  H456  1  0.66212022  0.04652118  0.21394477  1
  C  C457  1  0.53960408  0.35279263  0.24884300  1
  H  H458  1  0.53640855  0.06935481  0.38024319  1
  H  H459  1  0.70803405  0.06973905  0.08379770  1
  H  H460  1  0.54881406  0.47294268  0.16977024  1
  N  N461  1  0.58626024  0.31754596  0.02737558  1
  H  H462  1  0.58875183  0.46182750  0.33723172  1
  N  N463  1  0.56500258  0.03147410  0.37769772  1
  H  H464  1  0.70429477  0.06102617  0.40458133  1
  H  H465  1  0.72443402  0.29259779  0.49383043  1
  H  H466  1  0.63850899  0.33085507  0.47282063  1
  H  H467  1  0.50228975  0.44219507  0.33352030  1
  H  H468  1  0.72174839  0.47059471  0.34861338  1
  H  H469  1  0.51981486  0.34121940  0.47319498  1
  H  H470  1  0.51733827  0.09227648  0.49372469  1
  C  C471  1  0.61875190  0.10367353  0.49425104  1
  C  C472  1  0.70529804  0.03533298  0.01834041  1
  H  H473  1  0.59793402  0.09133943  0.00494200  1
  H  H474  1  0.59270997  0.46752607  0.49682684  1
  H  H475  1  0.54948077  0.39781186  0.95297537  1
  H  H476  1  0.69170469  0.35665210  0.68081147  1
  C  C477  1  0.59025263  0.16330553  0.98506600  1
  C  C478  1  0.70803322  0.34959035  0.94487235  1
  C  C479  1  0.56290982  0.18259025  0.90820092  1
  C  C480  1  0.69686983  0.08627766  0.94228214  1
  C  C481  1  0.66291001  0.06843178  0.52787096  1
  H  H482  1  0.60497205  0.24991575  0.70995433  1
  H  H483  1  0.53527431  0.01442036  0.57521102  1
  H  H484  1  0.62230828  0.39579521  0.78209178  1
  C  C485  1  0.70906076  0.23164790  0.62293993  1
  C  C486  1  0.65754500  0.01149101  0.60976822  1
  C  C487  1  0.63385392  0.25167588  0.66518575  1
  Cu  Cu488  1  0.63032690  0.47289816  0.95015140  1
  C  C489  1  0.55919189  0.33063035  0.95930983  1
  C  C490  1  0.56564800  0.44628147  0.70846227  1
  N  N491  1  0.58216391  0.47238606  0.85720128  1
  H  H492  1  0.53841049  0.15087946  0.77752690  1
  N  N493  1  0.74089917  0.38854447  0.99778106  1
  C  C494  1  0.67579686  0.22254534  0.68584410  1
  C  C495  1  0.69521716  0.49906414  0.58177246  1
  H  H496  1  0.52391668  0.28112386  0.83595375  1
  C  C497  1  0.65378712  0.30349133  0.53189007  1
  C  C498  1  0.59268355  0.43549938  0.78052103  1
  H  H499  1  0.68303569  0.18813297  0.74897448  1
  H  H500  1  0.72129720  0.06178389  0.62042084  1
  H  H501  1  0.51937202  0.08185233  0.85984173  1
  C  C502  1  0.67714666  0.32023044  0.90549543  1
  H  H503  1  0.68770106  0.15888640  0.93856215  1
  H  H504  1  0.73827721  0.31246374  0.81524767  1
  C  C505  1  0.52582454  0.49136300  0.70663692  1
  H  H506  1  0.68898377  0.09638288  0.81456045  1
  C  C507  1  0.54886160  0.11461396  0.83902037  1
  C  C508  1  0.54748202  0.27017451  0.89399672  1
  C  C509  1  0.69741279  0.27596543  0.54380270  1
  H  H510  1  0.67910656  0.43460124  0.56571240  1
  H  H511  1  0.65003649  0.29827559  0.86432131  1
  H  H512  1  0.57453864  0.40666644  0.64967978  1
  H  H513  1  0.61785689  0.06779827  0.80758469  1
  C  C514  1  0.71649647  0.40421407  0.71047885  1
  C  C515  1  0.50593709  0.05166104  0.55128552  1
  N  N516  1  0.69722895  0.04951592  0.86103476  1
  H  H517  1  0.68179412  0.12678402  0.53983270  1
  N  N518  1  0.62249559  0.28454852  0.58938598  1
  C  C519  1  0.74026033  0.38032235  0.78454864  1
  C  C520  1  0.58460778  0.03758416  0.82408411  1
  H  H521  1  0.60565487  0.16023812  0.53732556  1
  H  H522  1  0.51881547  0.22917509  0.54574680  1
  C  C523  1  0.72348434  0.48690400  0.66518091  1
  C  C524  1  0.74864102  0.08895273  0.66352685  1
  H  H525  1  0.63637594  0.04302557  0.66050404  1
  H  H526  1  0.74025897  0.07428251  0.73455431  1
  H  H527  1  0.50618413  0.33176948  0.68065074  1
  H  H528  1  0.50171551  0.42309502  0.58397456  1
  C  C529  1  0.50097206  0.20661001  0.60454905  1
  C  C530  1  0.51459711  0.59012974  0.39362013  1
  H  H531  1  0.73273282  0.94619339  0.34107396  1
  C  C532  1  0.50974763  0.82648199  0.27993899  1
  C  C533  1  0.64833999  0.90041962  0.24589693  1
  H  H534  1  0.66934217  0.78178565  0.26494174  1
  C  C535  1  0.53987062  0.91407945  0.02639808  1
  N  N536  1  0.68265597  0.56485233  0.14903063  1
  C  C537  1  0.72711837  0.89249033  0.09410358  1
  C  C538  1  0.58291756  0.65208011  0.05397142  1
  Cu  Cu539  1  0.60779539  0.77841638  0.36069039  1
  Cu  Cu540  1  0.63212078  0.74462741  0.14900503  1
  Cu  Cu541  1  0.68197141  0.63930572  0.02272444  1
  N  N542  1  0.62769622  0.56170674  0.30477207  1
  H  H543  1  0.70272165  0.90539784  0.14619018  1
  H  H544  1  0.51397453  0.88211643  0.06655895  1
  H  H545  1  0.53558845  0.73851414  0.35268776  1
  H  H546  1  0.54567470  0.62479779  0.40101864  1
  N  N547  1  0.63985472  0.81300718  0.25918313  1
  C  C548  1  0.66793985  0.62086441  0.43768565  1
  N  N549  1  0.62273988  0.69422213  0.02931092  1
  H  H550  1  0.69424012  0.66292362  0.46258674  1
  H  H551  1  0.68295052  0.54187856  0.21098660  1
  Cu  Cu552  1  0.56841798  0.67271505  0.25090968  1
  C  C553  1  0.54958005  0.61779277  0.07610945  1
  Cu  Cu554  1  0.62055370  0.56116440  0.16784366  1
  C  C555  1  0.61238104  0.92433175  0.05045914  1
  C  C556  1  0.73326842  0.90555899  0.39826210  1
  C  C557  1  0.70761760  0.64227161  0.15169215  1
  C  C558  1  0.65871968  0.60862914  0.34622557  1
  H  H559  1  0.65929305  0.99285033  0.40038936  1
  H  H560  1  0.67525561  0.64095629  0.28893257  1
  N  N561  1  0.54811167  0.77950073  0.30678990  1
  Cu  Cu562  1  0.56503614  0.84317198  0.18613707  1
  H  H563  1  0.72969367  0.82088181  0.08092982  1
  C  C564  1  0.72991267  0.70789800  0.15896518  1
  N  N565  1  0.70919728  0.93675183  0.46599443  1
  N  N566  1  0.57332791  0.89481855  0.07364272  1
  Cu  Cu567  1  0.55169251  0.90142782  0.36996592  1
  H  H568  1  0.64057029  0.90969316  0.09345685  1
  C  C569  1  0.60451594  0.51968683  0.36790236  1
  H  H570  1  0.50621531  0.77046164  0.43996049  1
  H  H571  1  0.51734072  0.58827327  0.10077800  1
  C  C572  1  0.65575279  0.97738842  0.22905927  1
  C  C573  1  0.60892834  0.51866066  0.45967955  1
  Cu  Cu574  1  0.58157557  0.99781524  0.25647837  1
  C  C575  1  0.64187848  0.57414264  0.49818468  1
  C  C576  1  0.71741549  0.94525617  0.00864604  1
  C  C577  1  0.58519365  0.85564329  0.57521346  1
  C  C578  1  0.54572040  0.52289492  0.86089533  1
  H  H579  1  0.69970363  0.93813946  0.78178584  1
  C  C580  1  0.62622579  0.79761107  0.83820109  1
  H  H581  1  0.61207147  0.68080401  0.65863579  1
  C  C582  1  0.55158262  0.73710558  0.84010717  1
  N  N583  1  0.63383407  0.75007390  0.76745329  1
  Cu  Cu584  1  0.61388507  0.62967126  0.91883492  1
  C  C585  1  0.60327583  0.71617234  0.71930964  1
  H  H586  1  0.57721710  0.83990894  0.92881862  1
  H  H587  1  0.71144777  0.51357151  0.51826396  1
  H  H588  1  0.50811704  0.96261479  0.91236675  1
  C  C589  1  0.51197200  0.78655488  0.50906358  1
  C  C590  1  0.58375716  0.79699204  0.87206061  1
  C  C591  1  0.71649351  0.66005508  0.82035764  1
  C  C592  1  0.50659960  0.72805015  0.88325586  1
  C  C593  1  0.65922995  0.57463309  0.59517271  1
  H  H594  1  0.66975035  0.89616408  0.67939665  1
  C  C595  1  0.51625778  0.53120524  0.79090818  1
  H  H596  1  0.53698312  0.66563497  0.72164025  1
  C  C597  1  0.67631828  0.92973923  0.61917856  1
  H  H598  1  0.71422067  0.68648925  0.75199117  1
  C  C599  1  0.69053849  0.58302485  0.83865738  1
  C  C600  1  0.54049233  0.94919317  0.93770488  1
  H  H601  1  0.65331330  0.83479455  0.87034869  1
  C  C602  1  0.55073403  0.82584794  0.53505533  1
  C  C603  1  0.74752953  0.70082276  0.87868201  1
  C  C604  1  0.56158671  0.70060384  0.75612103  1
  H  H605  1  0.72274991  0.83813507  0.91664179  1
  H  H606  1  0.63703821  0.55602745  0.65093730  1
  C  C607  1  0.71259752  0.90767398  0.92292125  1
  H  H608  1  0.67283541  0.64042706  0.61705089  1
  H  H609  1  0.67587696  0.53927232  0.78688306  1
  N  N610  1  0.67024313  0.56922982  0.91957704  1
  H  H611  1  0.60984368  0.89666897  0.54291921  1
  H  H612  1  0.51159948  0.73556415  0.95562494  1
  H  H613  1  0.52429756  0.82421633  0.68091632  1
  C  C614  1  0.70550196  0.89526107  0.54794556  1
  H  H615  1  0.58915466  0.84734700  0.64441238  1
  H  H616  1  0.54214631  0.57342711  0.56491230  1
  C  C617  1  0.58167359  0.98263893  0.91013917  1
  C  C618  1  0.72532262  0.81277020  0.55956008  1
  C  C619  1  0.61749138  0.96424395  0.96696002  1
  H  H620  1  0.72160320  0.77935820  0.62321200  1
  H  H621  1  0.53848338  0.54681859  0.93177703  1
  H  H622  1  0.64937846  0.98406251  0.94518698  1
  Cu  Cu623  1  0.73415599  0.50345866  0.92582474  1
  C  C624  1  0.50822883  0.56501645  0.56379901  1
  C  C625  1  0.70187134  0.96056825  0.85031401  1
  H  H626  1  0.57539342  0.99254787  0.76542002  1
  H  H627  1  0.62004989  0.75634856  0.99447785  1
  C  C628  1  0.79884731  0.40512944  0.17396458  1
  H  H629  1  0.87490834  0.40800273  0.08962107  1
  H  H630  1  0.95987304  0.33966509  0.42551013  1
  C  C631  1  0.92666591  0.09614605  0.04978641  1
  H  H632  1  0.81471533  0.26662755  0.21353820  1
  H  H633  1  0.90787355  0.37312188  0.47821749  1
  H  H634  1  0.84317845  0.03732270  0.13317445  1
  C  C635  1  0.84722149  0.02496972  0.20480241  1
  H  H636  1  0.97714217  0.41613322  0.14315588  1
  N  N637  1  0.98787241  0.06083794  0.15336902  1
  C  C638  1  0.97889407  0.04684100  0.49147135  1
  C  C639  1  0.82726102  0.06237134  0.35657508  1
  C  C640  1  0.89839682  0.28440519  0.27770395  1
  H  H641  1  0.91459342  0.25606750  0.21887581  1
  H  H642  1  0.88038146  0.02483336  0.44433029  1
  H  H643  1  0.80791389  0.09062195  0.41111257  1
  C  C644  1  0.77487975  0.45026252  0.44194284  1
  C  C645  1  0.87870109  0.44632365  0.23832357  1
  H  H646  1  0.85027203  0.18579345  0.29850450  1
  C  C647  1  0.82520213  0.33618420  0.20607843  1
  C  C648  1  0.86276387  0.23927729  0.42957167  1
  C  C649  1  0.87859462  0.20913343  0.33640501  1
  H  H650  1  0.92836613  0.31517916  0.31140846  1
  C  C651  1  0.83279532  0.30856237  0.43382772  1
  H  H652  1  0.87631458  0.41789956  0.38173095  1
  H  H653  1  0.97210031  0.20992984  0.29397489  1
  C  C654  1  0.96035714  0.11517465  0.10946235  1
  C  C655  1  0.93096990  0.35873847  0.00366072  1
  H  H656  1  0.94662268  0.31868819  0.05258848  1
  H  H657  1  0.97305566  0.18433924  0.13323535  1
  C  C658  1  0.97456050  0.16352928  0.35078043  1
  C  C659  1  0.86744904  0.35620185  0.23768446  1
  H  H660  1  0.81649990  0.33140112  0.37273989  1
  C  C661  1  0.97020201  0.07065631  0.34373018  1
  C  C662  1  0.99507812  0.37163022  0.18671388  1
  C  C663  1  0.81669782  0.06469435  0.26504377  1
  C  C664  1  0.90260532  0.42751576  0.42971918  1
  H  H665  1  0.90370762  0.15765008  0.34498644  1
  H  H666  1  0.98319775  0.42320847  0.31662401  1
  H  H667  1  0.76516379  0.39215117  0.14529956  1
  H  H668  1  0.76677730  0.11567944  0.16444088  1
  C  C669  1  0.91896904  0.00436567  0.03038976  1
  H  H670  1  0.90946930  0.46643341  0.26968926  1
  C  C671  1  0.97802691  0.20023920  0.43557911  1
  H  H672  1  0.77053741  0.18382442  0.35365425  1
  C  C673  1  0.75771455  0.17335844  0.28822218  1
  C  C674  1  0.75615739  0.48125033  0.36875969  1
  C  C675  1  0.98578768  0.29875609  0.46152139  1
  C  C676  1  0.93201951  0.49027357  0.41847678  1
  H  H677  1  0.96471513  0.03102212  0.28570008  1
  C  C678  1  0.77828633  0.11550614  0.23324192  1
  C  C679  1  0.89417392  0.40305661  0.02567639  1
  N  N680  1  0.81326562  0.48557647  0.16277677  1
  N  N681  1  0.97639490  0.01501962  0.40990037  1
  H  H682  1  0.90867080  0.14710390  0.01496564  1
  C  C683  1  0.86687937  0.02035820  0.37783603  1
  H  H684  1  0.89944764  0.02846085  0.68698229  1
  H  H685  1  0.81340878  0.39618173  0.69136866  1
  H  H686  1  0.94952266  0.27826847  0.78336834  1
  N  N687  1  0.96005316  0.07556676  0.68617202  1
  H  H688  1  0.76882048  0.21047765  0.71238328  1
  C  C689  1  0.86731089  0.22911040  0.59147335  1
  C  C690  1  0.80894776  0.10482622  0.89093579  1
  C  C691  1  0.99533606  0.32022109  0.90606321  1
  C  C692  1  0.86648989  0.02199773  0.65518554  1
  H  H693  1  0.98559696  0.30691995  0.53445740  1
  C  C694  1  0.86096504  0.24736662  0.90403583  1
  N  N695  1  0.77476374  0.42585426  0.81822480  1
  C  C696  1  0.92754810  0.41775566  0.85634120  1
  C  C697  1  0.89025008  0.46213440  0.88497901  1
  C  C698  1  0.96251476  0.20931046  0.77050857  1
  C  C699  1  0.82974200  0.06791743  0.68364033  1
  Cu  Cu700  1  0.79648326  0.38746472  0.94018864  1
  N  N701  1  0.81806393  0.26084177  0.91167000  1
  C  C702  1  0.83528301  0.33934456  0.67511921  1
  C  C703  1  0.88113285  0.16630593  0.88815900  1
  H  H704  1  0.84923372  0.30342643  0.72921192  1
  H  H705  1  0.93306537  0.18542145  0.63559813  1
  H  H706  1  0.91496116  0.16449216  0.86680860  1
  H  H707  1  0.87534636  0.19917935  0.66082824  1
  C  C708  1  0.79128848  0.04287016  0.63958212  1
  C  C709  1  0.75493861  0.19126507  0.64739532  1
  C  C710  1  0.95072476  0.36328237  0.91778579  1
  H  H711  1  0.82820401  0.11038787  0.74435461  1
  C  C712  1  0.98862675  0.16679636  0.83221064  1
  H  H713  1  0.93381539  0.42478194  0.78246827  1
  N  N714  1  0.87285955  0.45800400  0.96688731  1
  C  C715  1  0.98253931  0.03191354  0.74817021  1
  C  C716  1  0.79131402  0.18646960  0.90958319  1
  H  H717  1  0.87481009  0.44318830  0.58614748  1
  C  C718  1  0.95233393  0.16231941  0.69349783  1
  H  H719  1  0.75770367  0.19592870  0.93188219  1
  H  H720  1  0.87787970  0.31721281  0.91642927  1
  C  C721  1  0.79274715  0.42213972  0.51594637  1
  N  N722  1  0.84066384  0.30608466  0.59642738  1
  H  H723  1  0.77844958  0.20757077  0.59485419  1
  C  C724  1  0.99894476  0.07358302  0.82212878  1
  C  C725  1  0.98311721  0.13964800  0.50636040  1
  H  H726  1  0.99157532  0.16671404  0.57046366  1
  C  C727  1  0.85489299  0.08946471  0.88395604  1
  H  H728  1  0.99761821  0.42100602  0.70703974  1
  H  H729  1  0.97254349  0.45464188  0.54867616  1
  H  H730  1  0.78679362  0.04690125  0.87836491  1
  H  H731  1  0.78335865  0.44356223  0.58189834  1
  H  H732  1  0.91140045  0.01175677  0.84531427  1
  H  H733  1  0.97937896  0.19385485  0.97503276  1
  C  C734  1  0.87943092  0.19749389  0.50680631  1
  H  H735  1  0.89952938  0.13819275  0.50187877  1
  C  C736  1  0.82341774  0.34840630  0.51717836  1
  N  N737  1  0.85433586  0.70983334  0.34225078  1
  H  H738  1  0.97397667  0.55355475  0.16263867  1
  C  C739  1  0.96281215  0.55641572  0.40634750  1
  C  C740  1  0.99493078  0.56279090  0.47510550  1
  C  C741  1  0.89861611  0.82199117  0.41645832  1
  H  H742  1  0.77724500  0.93252056  0.20112274  1
  C  C743  1  0.77346391  0.92290974  0.12847458  1
  C  C744  1  0.80499481  0.85403724  0.09014760  1
  C  C745  1  0.82604598  0.78999423  0.14670751  1
  C  C746  1  0.75541430  0.82531507  0.41165850  1
  H  H747  1  0.84657335  0.82930543  0.30967178  1
  H  H748  1  0.86249049  0.58082540  0.37139914  1
  H  H749  1  0.92669346  0.77569208  0.29569854  1
  C  C750  1  0.99203791  0.84920765  0.30237294  1
  C  C751  1  0.94875312  0.94943732  0.07594519  1
  H  H752  1  0.85409572  0.58333727  0.19885748  1
  Cu  Cu753  1  0.77096570  0.57059381  0.12826974  1
  H  H754  1  0.87930667  0.69088298  0.15380795  1
  H  H755  1  0.95781771  0.61061448  0.35654648  1
  H  H756  1  0.90651583  0.89390049  0.42341647  1
  H  H757  1  0.83884621  0.89464394  0.48311253  1
  H  H758  1  0.77887337  0.79597732  0.36541664  1
  H  H759  1  0.94678192  0.87461994  0.06570868  1
  H  H760  1  0.92859575  0.66056763  0.04839560  1
  C  C761  1  0.90305587  0.67165130  0.46071676  1
  N  N762  1  0.96148493  0.74854913  0.19314993  1
  C  C763  1  0.87358960  0.65003641  0.39290564  1
  C  C764  1  0.86000077  0.73918009  0.11798429  1
  C  C765  1  0.96008695  0.79135456  0.26923370  1
  C  C766  1  0.86542031  0.79217207  0.35876680  1
  C  C767  1  0.91775027  0.75891205  0.47143439  1
  H  H768  1  0.81523171  0.79102600  0.21736242  1
  C  C769  1  0.97961822  0.97730410  0.14070416  1
  H  H770  1  0.98723082  0.89046395  0.35851555  1
  C  C771  1  0.84965230  0.50920505  0.20052841  1
  H  H772  1  0.80398035  0.68034974  0.46218559  1
  H  H773  1  0.91771681  0.61539080  0.49627258  1
  C  C774  1  0.99324847  0.56065902  0.02366329  1
  N  N775  1  0.76295394  0.58667838  0.00503194  1
  N  N776  1  0.89180215  0.97566934  0.32444416  1
  H  H777  1  0.78615179  0.69523792  0.00910961  1
  H  H778  1  0.99920121  0.70765810  0.09217776  1
  H  H779  1  0.75075500  0.76887506  0.16642286  1
  H  H780  1  0.78147678  0.98775214  0.10092048  1
  H  H781  1  0.77890197  0.50347577  0.31468151  1
  C  C782  1  0.88302920  0.98153831  0.23775095  1
  H  H783  1  0.90997061  0.95671240  0.19479758  1
  H  H784  1  0.85251609  0.97310830  0.00273657  1
  Cu  Cu785  1  0.82168754  0.52818877  0.00468514  1
  N  N786  1  0.87138160  0.74041083  0.02490172  1
  C  C787  1  0.75126492  0.77839209  0.49222035  1
  H  H788  1  0.87091198  0.50971517  0.84705738  1
  C  C789  1  0.78161448  0.50639772  0.77939596  1
  H  H790  1  0.96013273  0.92643224  0.88290495  1
  C  C791  1  0.76378850  0.66636489  0.96070377  1
  C  C792  1  0.90477976  0.69233087  0.99741858  1
  C  C793  1  0.96752438  0.70212156  0.76327629  1
  H  H794  1  0.76046593  0.84863940  0.75969775  1
  H  H795  1  0.86234433  0.94740037  0.83275847  1
  C  C796  1  0.94415251  0.77274654  0.72230302  1
  C  C797  1  0.85325301  0.79135282  0.87152575  1
  H  H798  1  0.85386814  0.71232928  0.76703708  1
  C  C799  1  0.83323669  0.65158289  0.64378244  1
  N  N800  1  0.89458863  0.52068198  0.68437207  1
  C  C801  1  0.81065688  0.84260908  0.99811617  1
  H  H802  1  0.81342046  0.53320109  0.80050846  1
  H  H803  1  0.75979357  0.63719798  0.52630054  1
  C  C804  1  0.75603519  0.53786453  0.70734974  1
  C  C805  1  0.85632219  0.65148467  0.72542725  1
  C  C806  1  0.79608719  0.98577820  0.56580076  1
  H  H807  1  0.91092499  0.68731125  0.92629206  1
  C  C808  1  0.96329391  0.86566907  0.84449337  1
  C  C809  1  0.84019972  0.57680568  0.58580254  1
  H  H810  1  0.79628457  0.88747954  0.95260518  1
  H  H811  1  0.78897696  0.76908394  0.64162252  1
  C  C812  1  0.82373639  0.83595857  0.82083395  1
  H  H813  1  0.76207016  0.60852363  0.68317617  1
  H  H814  1  0.80027990  0.93330108  0.72861406  1
  C  C815  1  0.79279519  0.87640671  0.77139641  1
  C  C816  1  0.94021813  0.85583031  0.76628634  1
  H  H817  1  0.92267069  0.90996016  0.73347605  1
  H  H818  1  0.88215868  0.75921287  0.84600539  1
  H  H819  1  0.91339257  0.58603618  0.79144720  1
  H  H820  1  0.95736303  0.85153159  0.55855821  1
  C  C821  1  0.88856557  0.58824480  0.73650780  1
  H  H822  1  0.97769374  0.74189545  0.55294875  1
  H  H823  1  0.88818419  0.80836067  0.63781650  1
  C  C824  1  0.91694103  0.76115358  0.63742796  1
  C  C825  1  0.83417626  0.94477281  0.53916856  1
  C  C826  1  0.86899269  0.50946533  0.61183798  1
  C  C827  1  0.81006735  0.72838493  0.59773890  1
  C  C828  1  0.84430826  0.78730104  0.96537436  1
  H  H829  1  0.97149260  0.63480521  0.73302109  1
  C  C830  1  0.87922491  0.99979686  0.87177901  1
  C  C831  1  0.94701805  0.78007351  0.55149285  1
  H  H832  1  0.83376365  0.77627182  0.56967030  1
  H  H833  1  0.90218864  0.69351558  0.63490138  1
  C  C834  1  0.78103558  0.69734480  0.51555151  1
  N  N835  1  0.86900870  0.96363487  0.58814987  1
  C  C836  1  0.99727976  0.50518303  0.54780960  1
  H  H837  1  0.76387097  0.75482900  0.84731003  1
  H  H838  1  0.88942177  0.89069210  0.96031237  1
  H  H839  1  0.98667194  0.96445030  0.72705772  1
  C  C840  1  0.88530921  0.96154586  0.96807865  1
  H  H841  1  0.89837930  0.93376490  0.56421829  1
  H  H842  1  0.81765457  0.57432436  0.52941515  1
  H  H843  1  0.77020642  0.96835987  0.51788524  1
  C  C844  1  0.98765059  0.72365982  0.84418022  1
  H  H845  1  0.98238374  0.98913083  0.53715503  1
  N  N846  1  0.98913889  0.80348169  0.87871865  1
  H  H847  1  0.96318671  0.53695377  0.98655285  1
