# generated using pymatgen
data_Cu2H27C45N5O12
_symmetry_space_group_name_H-M   'P 1'
_cell_length_a   23.53051174
_cell_length_b   28.23403301
_cell_length_c   37.57602614
_cell_angle_alpha   90.00000000
_cell_angle_beta   90.00000000
_cell_angle_gamma   90.00000000
_symmetry_Int_Tables_number   1
_chemical_formula_structural   Cu2H27C45N5O12
_chemical_formula_sum   'Cu48 H648 C1080 N120 O288'
_cell_volume   24964.05551517
_cell_formula_units_Z   24
loop_
 _symmetry_equiv_pos_site_id
 _symmetry_equiv_pos_as_xyz
  1  'x, y, z'
loop_
 _atom_site_type_symbol
 _atom_site_label
 _atom_site_symmetry_multiplicity
 _atom_site_fract_x
 _atom_site_fract_y
 _atom_site_fract_z
 _atom_site_occupancy
  C  C0  1  0.17369050  0.09208303  0.12954674  1
  N  N1  1  0.20237742  0.09707559  0.15946033  1
  C  C2  1  0.39803494  0.18798748  0.07111783  1
  C  C3  1  0.24909176  0.07201483  0.16399252  1
  C  C4  1  0.39276605  0.13787157  0.08039591  1
  C  C5  1  0.16226129  0.05887933  0.06744499  1
  C  C6  1  0.19564955  0.06242078  0.10205741  1
  H  H7  1  0.27120998  0.07582327  0.18933167  1
  H  H8  1  0.26873222  0.15739523  0.16564512  1
  C  C9  1  0.27257646  0.19613482  0.17231607  1
  H  H10  1  0.13250328  0.16538678  0.08453300  1
  H  H11  1  0.35025951  0.12445061  0.08462029  1
  N  N12  1  0.06101354  0.11702706  0.11679310  1
  H  H13  1  0.13026599  0.10719936  0.13046260  1
  C  C14  1  0.29892631  0.20063136  0.05689813  1
  O  O15  1  0.04991127  0.18204634  0.03997782  1
  N  N16  1  0.16605055  0.10663604  0.05512837  1
  H  H17  1  0.20119269  0.12515453  0.06525473  1
  C  C18  1  0.13254296  0.20344278  0.09176183  1
  H  H19  1  0.11913810  0.13356106  0.19055079  1
  H  H20  1  0.06415122  0.05732926  0.09213127  1
  C  C21  1  0.43683998  0.16585714  0.20680718  1
  C  C22  1  0.09759711  0.12293231  0.21771120  1
  C  C23  1  0.03965441  0.09044959  0.09279381  1
  O  O24  1  0.14317956  0.02305353  0.05647690  1
  C  C25  1  0.15437121  0.10895876  0.01643448  1
  C  C26  1  0.24584681  0.03617212  0.10356458  1
  H  H27  1  0.07932333  0.06372584  0.02209234  1
  N  N28  1  0.34850466  0.21512840  0.07556367  1
  O  O29  1  0.26936267  0.16670721  0.05800672  1
  C  C30  1  0.03103255  0.15478449  0.12299096  1
  H  H31  1  0.05142595  0.17701787  0.14382816  1
  N  N32  1  0.45050911  0.16266988  0.17065617  1
  C  C33  1  0.41067197  0.20824859  0.21991832  1
  C  C34  1  0.26942945  0.04091354  0.13776320  1
  N  N35  1  0.15647795  0.05139823  0.22260612  1
  C  C36  1  0.06006476  0.22148820  0.04673587  1
  H  H37  1  0.46975327  0.09109233  0.21955372  1
  C  C38  1  0.24405031  0.21648783  0.20301428  1
  H  H39  1  0.16695686  0.05818817  0.19598863  1
  C  C40  1  0.44424439  0.01208260  0.03333703  1
  C  C41  1  0.38132273  0.02075534  0.02857616  1
  H  H42  1  0.44374368  0.18554104  0.14964380  1
  C  C43  1  0.21318597  0.18728008  0.22605832  1
  H  H44  1  0.21240939  0.14870574  0.22356674  1
  H  H45  1  0.33715132  0.21321932  0.13293954  1
  H  H46  1  0.03131748  0.03861801  0.22078732  1
  C  C47  1  0.05470571  0.14936193  0.23150413  1
  C  C48  1  0.03923538  0.02580270  0.19351754  1
  H  H49  1  0.47256447  0.13209547  0.16342603  1
  C  C50  1  0.30827907  0.22682031  0.15445545  1
  H  H51  1  0.40144765  0.23762825  0.20074010  1
  H  H52  1  0.03931920  0.18134968  0.21629801  1
  C  C53  1  0.43732705  0.10688476  0.08226077  1
  O  O54  1  0.43128803  0.24465989  0.13871575  1
  C  C55  1  0.44630166  0.12457924  0.22817387  1
  H  H56  1  0.42556279  0.06912172  0.08951464  1
  C  C57  1  0.11783381  0.08404664  0.23903712  1
  H  H58  1  0.22608136  0.15621680  0.01051901  1
  C  C59  1  0.29655175  0.24071993  0.02815351  1
  N  N60  1  0.16815268  0.21716614  0.11535639  1
  H  H61  1  0.15905299  0.24354009  0.02800478  1
  O  O62  1  0.35007626  0.02509424  0.05373563  1
  H  H63  1  0.26370486  0.01364952  0.08286538  1
  C  C64  1  0.45336783  0.20995240  0.07138628  1
  C  C65  1  0.09113775  0.00606823  0.18420724  1
  C  C66  1  0.10602681  0.08504127  0.00440966  1
  C  C67  1  0.31879199  0.01024465  0.14803374  1
  C  C68  1  0.13359285  0.00478463  0.21709956  1
  C  C69  1  0.01447252  0.00864304  0.13322305  1
  C  C70  1  0.49335101  0.12861781  0.07637313  1
  C  C71  1  0.47896746  0.01632178  0.00442718  1
  H  H72  1  0.46298187  0.24764344  0.07184655  1
  O  O73  1  0.34617365  0.02080601  0.17368943  1
  H  H74  1  0.35868741  0.24939385  0.07029852  1
  C  C75  1  0.09520042  0.23937054  0.07766032  1
  H  H76  1  0.00994703  0.11977312  0.02207587  1
  H  H77  1  0.08427467  0.24206769  0.15272934  1
  C  C78  1  0.05093348  0.24405418  0.17408543  1
  C  C79  1  0.16915834  0.49101237  0.06830651  1
  H  H80  1  0.47252430  0.49629861  0.24840832  1
  C  C81  1  0.44587585  0.47990344  0.00381637  1
  H  H82  1  0.00827557  0.46628154  0.01307636  1
  C  C83  1  0.29041614  0.32274639  0.01555040  1
  C  C84  1  0.03062025  0.25575867  0.23563001  1
  C  C85  1  0.35157147  0.42293113  0.14544045  1
  C  C86  1  0.45173794  0.45319282  0.14957679  1
  H  H87  1  0.27883853  0.33462052  0.19979222  1
  C  C88  1  0.38561633  0.47584022  0.00813164  1
  N  N89  1  0.47392229  0.37507580  0.21304269  1
  C  C90  1  0.36732428  0.46297340  0.24347713  1
  C  C91  1  0.47277115  0.42414850  0.07851771  1
  C  C92  1  0.28548603  0.28521120  0.04079730  1
  C  C93  1  0.32108080  0.38836690  0.08760343  1
  C  C94  1  0.15900535  0.35385207  0.01192871  1
  C  C95  1  0.15508040  0.35417122  0.04792134  1
  C  C96  1  0.07282577  0.25205597  0.20627408  1
  H  H97  1  0.39833265  0.36735616  0.19672763  1
  C  C98  1  0.15330224  0.34961858  0.12190914  1
  C  C99  1  0.41655528  0.41746733  0.09205063  1
  H  H100  1  0.11992374  0.25655952  0.21024990  1
  C  C101  1  0.07942367  0.41482915  0.05202799  1
  C  C102  1  0.28099482  0.37454696  0.02860452  1
  H  H103  1  0.49015741  0.40645440  0.05321155  1
  H  H104  1  0.23787768  0.45426440  0.19659908  1
  H  H105  1  0.36017022  0.33259035  0.15993223  1
  O  O106  1  0.15294486  0.48242292  0.23301309  1
  C  C107  1  0.08114981  0.41496813  0.01344141  1
  H  H108  1  0.38097656  0.38746547  0.04339695  1
  O  O109  1  0.11194757  0.47467857  0.13487998  1
  H  H110  1  0.20784839  0.26532239  0.14424269  1
  N  N111  1  0.20233437  0.47234169  0.00917394  1
  C  C112  1  0.09457906  0.28845972  0.08775140  1
  C  C113  1  0.27872434  0.29738928  0.19324907  1
  C  C114  1  0.31136883  0.39827510  0.12526554  1
  H  H115  1  0.04937463  0.43881386  0.06627852  1
  C  C116  1  0.39478725  0.49486856  0.21969302  1
  H  H117  1  0.27078839  0.38868101  0.13957144  1
  C  C118  1  0.31111183  0.44767927  0.23565798  1
  C  C119  1  0.11766424  0.38569116  0.06820105  1
  C  C120  1  0.40737766  0.43196181  0.13027178  1
  C  C121  1  0.27933964  0.46712518  0.20433589  1
  H  H122  1  0.44354801  0.47213463  0.17468283  1
  N  N123  1  0.11874678  0.38369394  0.10646435  1
  H  H124  1  0.11095549  0.41701507  0.11864316  1
  H  H125  1  0.15805233  0.45249778  0.07482719  1
  C  C126  1  0.43890174  0.35084570  0.19289572  1
  C  C127  1  0.24362851  0.26841597  0.21414105  1
  H  H128  1  0.06395267  0.31166025  0.07628417  1
  H  H129  1  0.18468140  0.44024596  0.00578515  1
  C  C130  1  0.13855172  0.29926006  0.11178074  1
  H  H131  1  0.34168054  0.43417687  0.17249862  1
  C  C132  1  0.22321202  0.28431279  0.24887387  1
  O  O133  1  0.27815495  0.40910991  0.01107082  1
  C  C134  1  0.31247527  0.27522651  0.16651697  1
  H  H135  1  0.23916336  0.38798363  0.07481939  1
  C  C136  1  0.45276193  0.30832682  0.17430355  1
  C  C137  1  0.17240788  0.26257790  0.12439316  1
  C  C138  1  0.37306811  0.39672343  0.07125109  1
  Cu  Cu139  1  0.01745597  0.44958575  0.23866830  1
  N  N140  1  0.35761093  0.30080596  0.14895216  1
  N  N141  1  0.27483136  0.36982386  0.06657014  1
  H  H142  1  0.18520882  0.32986087  0.06363831  1
  C  C143  1  0.41389974  0.28118657  0.15011614  1
  N  N144  1  0.04195378  0.26300454  0.02729992  1
  H  H145  1  0.27766716  0.29375637  0.06993556  1
  O  O146  1  0.19175332  0.35537060  0.14198844  1
  C  C147  1  0.14056425  0.25932112  0.00301802  1
  H  H148  1  0.40692008  0.17175031  0.30731026  1
  H  H149  1  0.11166362  0.13844883  0.35612678  1
  H  H150  1  0.20691072  0.09994634  0.34155303  1
  C  C151  1  0.14791158  0.07359490  0.38210345  1
  C  C152  1  0.10679741  0.11132079  0.37755097  1
  C  C153  1  0.20159385  0.07594324  0.36325881  1
  H  H154  1  0.09272925  0.13226193  0.46008190  1
  H  H155  1  0.35921309  0.19023906  0.47033779  1
  C  C156  1  0.14066443  0.03826306  0.41217618  1
  C  C157  1  0.38673551  0.16691569  0.45462550  1
  C  C158  1  0.38899795  0.17444013  0.41806162  1
  C  C159  1  0.14018117  0.12880865  0.46482808  1
  C  C160  1  0.17389220  0.16320092  0.44931361  1
  N  N161  1  0.25398905  0.12255541  0.47189785  1
  H  H162  1  0.26793299  0.17659146  0.44114791  1
  C  C163  1  0.23478889  0.15598995  0.45266585  1
  C  C164  1  0.05071133  0.09716653  0.28797388  1
  C  C165  1  0.14920459  0.20287110  0.42728967  1
  C  C166  1  0.44767569  0.09542770  0.44903994  1
  C  C167  1  0.36110072  0.21320014  0.40016206  1
  O  O168  1  0.37290330  0.22047664  0.36705623  1
  O  O169  1  0.15289797  0.16301708  0.31724729  1
  C  C170  1  0.17386671  0.17665110  0.29073530  1
  H  H171  1  0.42594344  0.15232760  0.36776625  1
  C  C172  1  0.44615396  0.10313638  0.41177492  1
  C  C173  1  0.41899313  0.14405817  0.39686739  1
  C  C174  1  0.05682012  0.11044687  0.39765727  1
  C  C175  1  0.09584270  0.07267843  0.27323710  1
  C  C176  1  0.41650710  0.12772898  0.46898416  1
  C  C177  1  0.04604707  0.07299699  0.42149643  1
  H  H178  1  0.47699540  0.07128122  0.46127545  1
  N  N179  1  0.09005418  0.20250928  0.42775634  1
  C  C180  1  0.06541444  0.20501505  0.46345480  1
  C  C181  1  0.16072715  0.09148220  0.48519798  1
  O  O182  1  0.45282859  0.09878883  0.32203018  1
  C  C183  1  0.41412410  0.17265486  0.27761702  1
  C  C184  1  0.45626768  0.09132849  0.28950408  1
  O  O185  1  0.47676287  0.05559753  0.27487511  1
  H  H186  1  0.03852810  0.05765173  0.33762771  1
  C  C187  1  0.08877296  0.03943010  0.43040638  1
  C  C188  1  0.43793520  0.13181813  0.26397406  1
  H  H189  1  0.11474691  0.04318795  0.28782030  1
  C  C190  1  0.02988840  0.13833974  0.26575385  1
  H  H191  1  0.02842490  0.14095329  0.39564985  1
  C  C192  1  0.02472317  0.08688617  0.32299478  1
  C  C193  1  0.39816103  0.21062150  0.25593891  1
  H  H194  1  0.08105986  0.01327395  0.45155505  1
  C  C195  1  0.22010643  0.09299307  0.48885265  1
  N  N196  1  0.47307080  0.07203902  0.38861656  1
  C  C197  1  0.29469419  0.02860694  0.35173763  1
  C  C198  1  0.24067117  0.03876285  0.37024041  1
  O  O199  1  0.33658016  0.02318160  0.33536448  1
  H  H200  1  0.03524135  0.07522234  0.48769617  1
  H  H201  1  0.46958054  0.07590409  0.36071368  1
  O  O202  1  0.17613047  0.23203591  0.41225040  1
  C  C203  1  0.19679014  0.20265816  0.26144119  1
  O  O204  1  0.32361286  0.23589369  0.41742866  1
  C  C205  1  0.23163892  0.00586574  0.39973147  1
  H  H206  1  0.14985044  0.21573458  0.48786374  1
  H  H207  1  0.06686993  0.22165319  0.40851729  1
  O  O208  1  0.34598269  0.24749325  0.30227925  1
  C  C209  1  0.10403276  0.21474932  0.49048174  1
  C  C210  1  0.00700820  0.19197493  0.47047499  1
  C  C211  1  0.18711082  0.00827389  0.42396883  1
  H  H212  1  0.49825277  0.04405720  0.39494095  1
  O  O213  1  0.49930983  0.23181243  0.31237694  1
  H  H214  1  0.47666950  0.23035041  0.39964233  1
  C  C215  1  0.00035082  0.26145002  0.29804484  1
  C  C216  1  0.36954114  0.25455080  0.27062696  1
  C  C217  1  0.19769610  0.25239030  0.27166696  1
  H  H218  1  0.08953060  0.25430847  0.27857818  1
  O  O219  1  0.02948048  0.25286289  0.36454445  1
  C  C220  1  0.01855972  0.25591743  0.33455522  1
  O  O221  1  0.24186338  0.31747308  0.36004932  1
  C  C222  1  0.07873060  0.38802120  0.43704917  1
  H  H223  1  0.10609532  0.30849165  0.45551104  1
  C  C224  1  0.21224496  0.49884057  0.37487199  1
  H  H225  1  0.39125744  0.45257743  0.26798600  1
  C  C226  1  0.26121709  0.28693641  0.49325407  1
  C  C227  1  0.17356489  0.36528768  0.41784431  1
  Cu  Cu228  1  0.25649185  0.46242813  0.49846711  1
  C  C229  1  0.35817689  0.46943199  0.42543506  1
  O  O230  1  0.31974189  0.32903698  0.40894024  1
  C  C231  1  0.39670655  0.48416540  0.32440858  1
  Cu  Cu232  1  0.36761645  0.27864187  0.34369140  1
  C  C233  1  0.20859711  0.29501743  0.47742105  1
  H  H234  1  0.29897665  0.41065614  0.42104973  1
  O  O235  1  0.00862033  0.46908374  0.36164011  1
  O  O236  1  0.42015132  0.44744720  0.33396101  1
  O  O237  1  0.25120380  0.38612767  0.27392575  1
  O  O238  1  0.36698872  0.29129771  0.25585712  1
  C  C239  1  0.36967300  0.34046882  0.39930436  1
  C  C240  1  0.41227006  0.48549020  0.41726365  1
  C  C241  1  0.09156948  0.34141681  0.38128627  1
  C  C242  1  0.43928400  0.40620048  0.40040296  1
  O  O243  1  0.12457986  0.43881402  0.49466984  1
  C  C244  1  0.34328440  0.42215629  0.41882025  1
  O  O245  1  0.39926532  0.31212313  0.38205779  1
  O  O246  1  0.47986218  0.37537208  0.47028634  1
  H  H247  1  0.22016576  0.37188513  0.41974398  1
  C  C248  1  0.10506967  0.46277772  0.36057293  1
  C  C249  1  0.18558173  0.32198068  0.35986184  1
  C  C250  1  0.20666898  0.45777066  0.35295765  1
  H  H251  1  0.30036650  0.27873330  0.47904555  1
  H  H252  1  0.18711265  0.26310571  0.29966897  1
  H  H253  1  0.29523802  0.44301683  0.34208057  1
  H  H254  1  0.47240973  0.38227029  0.39389558  1
  C  C255  1  0.15608899  0.41595036  0.47644281  1
  H  H256  1  0.05004938  0.40548824  0.45514926  1
  C  C257  1  0.04865659  0.44384078  0.35022409  1
  Cu  Cu258  1  0.45653970  0.43458566  0.47965817  1
  N  N259  1  0.25217897  0.43339402  0.33902120  1
  O  O260  1  0.20964776  0.41210091  0.48515429  1
  H  H261  1  0.20661222  0.29561810  0.44761580  1
  H  H262  1  0.07273460  0.32030946  0.35827697  1
  H  H263  1  0.14355256  0.40596382  0.33216752  1
  C  C264  1  0.15168522  0.43824172  0.34788818  1
  C  C265  1  0.04477641  0.25620678  0.27111887  1
  C  C266  1  0.45411840  0.45332771  0.40563230  1
  H  H267  1  0.24927424  0.40545841  0.32098563  1
  C  C268  1  0.14940329  0.34424511  0.38796322  1
  Cu  Cu269  1  0.28242490  0.27625681  0.38885350  1
  C  C270  1  0.13880252  0.39058582  0.44235485  1
  O  O271  1  0.03832428  0.40502615  0.33538870  1
  C  C272  1  0.05802747  0.36468174  0.40725668  1
  C  C273  1  0.38356120  0.39021203  0.40586340  1
  O  O274  1  0.26753748  0.48291972  0.44929378  1
  O  O275  1  0.15811677  0.30505434  0.33543165  1
  C  C276  1  0.10736786  0.31188398  0.48457408  1
  O  O277  1  0.34583769  0.49307193  0.32704690  1
  H  H278  1  0.23277548  0.32126711  0.25628468  1
  C  C279  1  0.00469070  0.32362999  0.48874473  1
  O  O280  1  0.44450207  0.49935701  0.48733937  1
  H  H281  1  0.47177137  0.29199153  0.49584513  1
  C  C282  1  0.15967693  0.30510141  0.49970322  1
  C  C283  1  0.27994996  0.41424085  0.25796887  1
  H  H284  1  0.08525923  0.13224941  0.62388284  1
  C  C285  1  0.20899621  0.13840539  0.65168904  1
  O  O286  1  0.19087618  0.09880736  0.65436748  1
  C  C287  1  0.30226406  0.03975481  0.55493206  1
  H  H288  1  0.10487501  0.06651234  0.67046592  1
  H  H289  1  0.31717351  0.07010800  0.56930639  1
  H  H290  1  0.24122561  0.05770157  0.61238664  1
  N  N291  1  0.34293839  0.15556501  0.69097272  1
  N  N292  1  0.21348520  0.17501886  0.67655921  1
  H  H293  1  0.12729173  0.12316124  0.56195868  1
  C  C294  1  0.08350394  0.11108185  0.56750870  1
  C  C295  1  0.06049320  0.11886690  0.60117372  1
  H  H296  1  0.31478054  0.09442836  0.67206248  1
  H  H297  1  0.20268296  0.10313975  0.58079205  1
  C  C298  1  0.22325391  0.13881278  0.58538737  1
  C  C299  1  0.23333016  0.16148702  0.61833718  1
  N  N300  1  0.24273080  0.15381328  0.55377875  1
  C  C301  1  0.09493422  0.04774409  0.69534070  1
  C  C302  1  0.33085154  0.11040423  0.69759842  1
  C  C303  1  0.27481183  0.18998139  0.55275982  1
  C  C304  1  0.35907849  0.18320531  0.71704602  1
  C  C305  1  0.22643983  0.02566662  0.59789618  1
  C  C306  1  0.26934714  0.20184880  0.61768102  1
  C  C307  1  0.06056447  0.12268174  0.71616783  1
  H  H308  1  0.16663419  0.03875052  0.65648704  1
  H  H309  1  0.18942422  0.08933658  0.70396053  1
  C  C310  1  0.06991502  0.07046934  0.72446371  1
  C  C311  1  0.20828179  0.16385689  0.71457150  1
  Cu  Cu312  1  0.39792612  0.18614285  0.55936435  1
  O  O313  1  0.41450938  0.19347459  0.60694942  1
  C  C314  1  0.43865505  0.16192632  0.62676426  1
  O  O315  1  0.06176075  0.14054364  0.68774092  1
  O  O316  1  0.41491274  0.12801049  0.63954298  1
  H  H317  1  0.27985311  0.20281359  0.52468186  1
  C  C318  1  0.28825781  0.21684049  0.58431559  1
  H  H319  1  0.21308686  0.21226761  0.67118953  1
  O  O320  1  0.37502311  0.14959520  0.52105679  1
  O  O321  1  0.44460822  0.09945805  0.52828148  1
  O  O322  1  0.44558110  0.22494490  0.52903325  1
  H  H323  1  0.37086009  0.21975012  0.70934280  1
  H  H324  1  0.27985896  0.22307727  0.64215118  1
  C  C325  1  0.04503688  0.09581428  0.53967977  1
  C  C326  1  0.08421142  0.21578320  0.52682150  1
  C  C327  1  0.12306875  0.22087547  0.55580194  1
  C  C328  1  0.10454262  0.22534767  0.59094094  1
  C  C329  1  0.20306539  0.11570383  0.72457797  1
  C  C330  1  0.41227934  0.12274120  0.50840359  1
  C  C331  1  0.02215925  0.21185950  0.53419428  1
  C  C332  1  0.04257549  0.22512947  0.59692008  1
  H  H333  1  0.16931393  0.22221665  0.55027374  1
  C  C334  1  0.25312360  0.01341952  0.56579209  1
  C  C335  1  0.33064454  0.02451075  0.52506726  1
  H  H336  1  0.05201530  0.01396623  0.51584740  1
  C  C337  1  0.33028519  0.01553386  0.68829675  1
  C  C338  1  0.39091101  0.01834533  0.69118200  1
  H  H339  1  0.36969529  0.04332730  0.51528087  1
  H  H340  1  0.00183492  0.11747395  0.66083187  1
  C  C341  1  0.49833741  0.21582667  0.52720545  1
  H  H342  1  0.21602886  0.23720722  0.72893038  1
  H  H343  1  0.41295512  0.02381079  0.71722644  1
  C  C344  1  0.42396126  0.01695432  0.65980669  1
  C  C345  1  0.33397058  0.09163782  0.73244264  1
  N  N346  1  0.28596060  0.01862392  0.71576483  1
  C  C347  1  0.21218946  0.20094362  0.73883437  1
  O  O348  1  0.13335224  0.02215817  0.51924181  1
  H  H349  1  0.03315074  0.21566706  0.70879584  1
  C  C350  1  0.05737525  0.22443954  0.73208076  1
  N  N351  1  0.16184136  0.00445081  0.64739803  1
  N  N352  1  0.06728181  0.08510059  0.50510607  1
  C  C353  1  0.00225990  0.21862980  0.56826921  1
  C  C354  1  0.01706570  0.23553790  0.63130848  1
  C  C355  1  0.12049381  0.05868321  0.50628689  1
  C  C356  1  0.48490634  0.02530386  0.66164996  1
  C  C357  1  0.48878656  0.00521927  0.59795705  1
  H  H358  1  0.13297211  0.22895748  0.61442672  1
  H  H359  1  0.24868112  0.06844367  0.50336569  1
  C  C360  1  0.39486767  0.00056668  0.62600185  1
  C  C361  1  0.31211149  0.04181654  0.74504011  1
  C  C362  1  0.49192725  0.34199016  0.71225458  1
  H  H363  1  0.33417181  0.33120728  0.74120721  1
  H  H364  1  0.33404443  0.46052386  0.59059501  1
  C  C365  1  0.13269250  0.42001141  0.64747183  1
  O  O366  1  0.24283146  0.30891145  0.67186494  1
  C  C367  1  0.44779019  0.40065888  0.56134299  1
  H  H368  1  0.04535233  0.43883323  0.63717854  1
  C  C369  1  0.47630176  0.36364575  0.74401899  1
  N  N370  1  0.00015633  0.34726773  0.63378739  1
  H  H371  1  0.46537269  0.38943576  0.53666295  1
  C  C372  1  0.11962527  0.32668543  0.55995077  1
  H  H373  1  0.21894089  0.39241877  0.65761813  1
  C  C374  1  0.15065739  0.33715275  0.65303357  1
  C  C375  1  0.06728187  0.33517955  0.54535931  1
  H  H376  1  0.35523124  0.47615797  0.65914424  1
  H  H377  1  0.35171449  0.29841288  0.53504320  1
  C  C378  1  0.31940516  0.26338578  0.58184759  1
  C  C379  1  0.05500451  0.36319625  0.63995586  1
  H  H380  1  0.22888846  0.29940157  0.58377647  1
  C  C381  1  0.39816901  0.31679001  0.70003548  1
  C  C382  1  0.37826977  0.33463265  0.73199508  1
  C  C383  1  0.17203101  0.38468867  0.65321711  1
  N  N384  1  0.32000083  0.27393902  0.54514881  1
  C  C385  1  0.07602680  0.41023441  0.64218236  1
  H  H386  1  0.37122975  0.28288896  0.65096509  1
  C  C387  1  0.37219887  0.44242274  0.59197870  1
  H  H388  1  0.04829062  0.29816896  0.68865639  1
  N  N389  1  0.37496479  0.44497724  0.65709398  1
  O  O390  1  0.47076721  0.48344527  0.73492363  1
  C  C391  1  0.21996834  0.30040314  0.55566954  1
  H  H392  1  0.09560216  0.37715944  0.69934855  1
  C  C393  1  0.36095398  0.43015637  0.52876402  1
  H  H394  1  0.40205765  0.44595906  0.67843227  1
  C  C395  1  0.19240980  0.29987844  0.66350583  1
  H  H396  1  0.48094095  0.41263931  0.64989559  1
  C  C397  1  0.15667533  0.46787979  0.64687187  1
  H  H398  1  0.03220728  0.34925564  0.56243246  1
  H  H399  1  0.31853450  0.29844350  0.67770124  1
  C  C400  1  0.09578061  0.32528127  0.64348094  1
  O  O401  1  0.21088389  0.47224050  0.64853239  1
  O  O402  1  0.00334202  0.49586139  0.55016299  1
  N  N403  1  0.36165516  0.29136206  0.67768810  1
  H  H404  1  0.12737093  0.33866007  0.58697219  1
  C  C405  1  0.26422923  0.28660051  0.53152696  1
  C  C406  1  0.05945364  0.32221616  0.50723950  1
  O  O407  1  0.33870461  0.28289601  0.60677426  1
  O  O408  1  0.17660083  0.25728964  0.65823502  1
  H  H409  1  0.08544261  0.28780392  0.63990565  1
  C  C410  1  0.16735410  0.30980439  0.53943429  1
  C  C411  1  0.45503110  0.41180512  0.62561994  1
  O  O412  1  0.31432202  0.45061746  0.53149614  1
  C  C413  1  0.06769357  0.30815846  0.71446246  1
  H  H414  1  0.47105049  0.30411993  0.66457845  1
  C  C415  1  0.45448589  0.31907291  0.68947375  1
  C  C416  1  0.39942344  0.43140620  0.62453422  1
  C  C417  1  0.08915169  0.35332020  0.72056058  1
  C  C418  1  0.47906008  0.39900998  0.59268317  1
  C  C419  1  0.39553970  0.42373711  0.56151899  1
  C  C420  1  0.07297034  0.27012831  0.74087161  1
  O  O421  1  0.38449678  0.41622172  0.50027648  1
  C  C422  1  0.23003697  0.13432576  0.82211163  1
  C  C423  1  0.24705906  0.17363636  0.84586129  1
  H  H424  1  0.23082967  0.09997780  0.83409976  1
  C  C425  1  0.26930680  0.16507838  0.88111021  1
  H  H426  1  0.42743053  0.11661058  0.86080105  1
  H  H427  1  0.21235851  0.16831950  0.94370486  1
  C  C428  1  0.18518513  0.14619517  0.96000260  1
  C  C429  1  0.03560802  0.20390914  0.93108649  1
  O  O430  1  0.28864063  0.15741305  0.90890478  1
  H  H431  1  0.16494430  0.14557960  0.89125088  1
  C  C432  1  0.13510420  0.12441048  0.90749076  1
  C  C433  1  0.14022638  0.12024369  0.94514083  1
  C  C434  1  0.09876522  0.09153344  0.96706713  1
  C  C435  1  0.05028039  0.07100338  0.94930083  1
  C  C436  1  0.09090548  0.09817031  0.89001803  1
  C  C437  1  0.04659545  0.07485360  0.91233190  1
  O  O438  1  0.09070165  0.08862725  0.82054952  1
  C  C439  1  0.08987301  0.09358667  0.85088896  1
  O  O440  1  0.25495728  0.03074862  0.95785553  1
  H  H441  1  0.45803042  0.02636973  0.97856116  1
  C  C442  1  0.22106403  0.19261471  0.77587707  1
  C  C443  1  0.21700251  0.14134361  0.78648969  1
  H  H444  1  0.35390685  0.10413274  0.78712107  1
  N  N445  1  0.38595724  0.16932701  0.81154566  1
  C  C446  1  0.44417409  0.14931825  0.81050294  1
  H  H447  1  0.38312596  0.18522615  0.83647859  1
  H  H448  1  0.09445416  0.16760383  0.81198617  1
  C  C449  1  0.08955649  0.19678772  0.79242549  1
  C  C450  1  0.37373041  0.20059883  0.78301445  1
  C  C451  1  0.06745786  0.18750268  0.75760406  1
  C  C452  1  0.22017206  0.01732834  0.93260677  1
  H  H453  1  0.06313668  0.11837901  0.76996790  1
  N  N454  1  0.05032578  0.14103067  0.75050477  1
  C  C455  1  0.03116566  0.17774347  0.96279557  1
  H  H456  1  0.01517057  0.05565920  0.96583978  1
  C  C457  1  0.35122991  0.12000028  0.76095659  1
  H  H458  1  0.17033989  0.07318517  0.76841101  1
  H  H459  1  0.43405063  0.20163129  0.96690799  1
  H  H460  1  0.06733152  0.17391530  0.98119602  1
  C  C461  1  0.46765877  0.23017158  0.96581700  1
  H  H462  1  0.32595875  0.20089024  0.97621722  1
  C  C463  1  0.25019061  0.22338616  0.83300873  1
  C  C464  1  0.23900622  0.23198234  0.79781262  1
  C  C465  1  0.19790906  0.10439407  0.76103044  1
  C  C466  1  0.36270655  0.16747353  0.75298136  1
  H  H467  1  0.01501188  0.05823295  0.89774866  1
  O  O468  1  0.23704628  0.01905792  0.90202035  1
  C  C469  1  0.05814059  0.04294400  0.75511465  1
  H  H470  1  0.17126927  0.00473086  0.99671716  1
  O  O471  1  0.31728073  0.02648621  0.77452942  1
  H  H472  1  0.07476079  0.22349786  0.92438276  1
  C  C473  1  0.45973154  0.12250997  0.84052234  1
  C  C474  1  0.48054829  0.15703153  0.78030388  1
  O  O475  1  0.37250040  0.24283909  0.78230628  1
  H  H476  1  0.03964602  0.05235304  0.78127146  1
  H  H477  1  0.46313582  0.17790006  0.75847153  1
  O  O478  1  0.47889289  0.15322856  0.92143427  1
  H  H479  1  0.22195659  0.24791611  0.97663218  1
  C  C480  1  0.10058237  0.24237513  0.80372804  1
  H  H481  1  0.11541448  0.24946779  0.83142605  1
  C  C482  1  0.16183558  0.00006990  0.93961727  1
  O  O483  1  0.36186195  0.02373829  0.99566369  1
  C  C484  1  0.31216738  0.23367508  0.99141703  1
  C  C485  1  0.19362616  0.13619058  0.99593539  1
  H  H486  1  0.49518750  0.25690029  0.88402954  1
  H  H487  1  0.01351458  0.47318919  0.94481628  1
  H  H488  1  0.26619093  0.25108639  0.85073037  1
  C  C489  1  0.17865893  0.26259582  0.97549458  1
  N  N490  1  0.48459156  0.40452576  0.87871852  1
  N  N491  1  0.46333767  0.26800017  0.98539307  1
  C  C492  1  0.49148316  0.26795358  0.79293204  1
  H  H493  1  0.18986074  0.33071417  0.99844532  1
  C  C494  1  0.04098931  0.44635275  0.99646717  1
  O  O495  1  0.38211765  0.26234054  0.89447456  1
  C  C496  1  0.12006418  0.38520161  0.99179031  1
  H  H497  1  0.36194221  0.44564598  0.99693813  1
  C  C498  1  0.29250262  0.45248148  0.92592777  1
  H  H499  1  0.30677097  0.33695481  0.95708492  1
  C  C500  1  0.21293291  0.32478603  0.85418301  1
  H  H501  1  0.24690301  0.26740711  0.78520893  1
  H  H502  1  0.01531277  0.29868292  0.96317499  1
  C  C503  1  0.07905743  0.32397896  0.90612008  1
  C  C504  1  0.48181891  0.41710170  0.91240023  1
  C  C505  1  0.12131376  0.38921199  0.95410364  1
  C  C506  1  0.17412396  0.31266988  0.88238124  1
  C  C507  1  0.40987696  0.28734826  0.87541601  1
  O  O508  1  0.09649866  0.43441602  0.86998745  1
  C  C509  1  0.05934889  0.29250142  0.96742123  1
  C  C510  1  0.30657914  0.48662437  0.78978523  1
  H  H511  1  0.38485642  0.45137675  0.92321330  1
  H  H512  1  0.41346172  0.31972167  0.94870045  1
  H  H513  1  0.47093170  0.35783065  0.83851095  1
  H  H514  1  0.29883026  0.45423260  0.77374996  1
  C  C515  1  0.15638708  0.28075565  0.94253183  1
  C  C516  1  0.30232157  0.48261594  0.82676514  1
  C  C517  1  0.24225121  0.47723137  0.92973092  1
  C  C518  1  0.40108662  0.38658971  0.78478605  1
  H  H519  1  0.38727859  0.26218504  0.82270928  1
  C  C520  1  0.43400449  0.34260872  0.92817373  1
  C  C521  1  0.08129681  0.27189535  0.99928300  1
  O  O522  1  0.16781224  0.43768949  0.77843515  1
  N  N523  1  0.28904919  0.43483375  0.83904564  1
  H  H524  1  0.14923344  0.36800436  0.93628255  1
  C  C525  1  0.41797521  0.36006728  0.75260250  1
  C  C526  1  0.43691788  0.33169527  0.89217046  1
  H  H527  1  0.23634360  0.27182343  0.91481452  1
  O  O528  1  0.43782786  0.41182212  0.79959341  1
  C  C529  1  0.34637614  0.47239054  0.92994645  1
  O  O530  1  0.35336669  0.37945002  0.79940325  1
  O  O531  1  0.32860443  0.38429787  0.89803280  1
  Cu  Cu532  1  0.45700191  0.46459894  0.82504669  1
  Cu  Cu533  1  0.33621126  0.37592499  0.84782887  1
  C  C534  1  0.08969599  0.43061462  0.90013273  1
  C  C535  1  0.11797696  0.32651740  0.78407816  1
  C  C536  1  0.46413864  0.36344348  0.86823912  1
  H  H537  1  0.13986845  0.33480398  0.81029011  1
  H  H538  1  0.10237968  0.35390596  0.85530995  1
  H  H539  1  0.26767631  0.43333686  0.86317060  1
  H  H540  1  0.45983531  0.27807355  0.77288021  1
  C  C541  1  0.11580108  0.36131034  0.75669424  1
  C  C542  1  0.30299850  0.31051396  0.98017314  1
  C  C543  1  0.09705890  0.28009553  0.77828029  1
  C  C544  1  0.28379076  0.40290874  0.91302418  1
  N  N545  1  0.48186305  0.44965290  0.98353816  1
  H  H546  1  0.03622883  0.33714571  0.90023183  1
  C  C547  1  0.19293579  0.28553522  0.91386095  1
  N  N548  1  0.31376933  0.26771257  0.96794688  1
  C  C549  1  0.08490922  0.42458519  0.93908846  1
  C  C550  1  0.45938393  0.38605881  0.93858220  1
  C  C551  1  0.47531867  0.26705116  0.82877178  1
  H  H552  1  0.20060411  0.46590250  0.92132249  1
  C  C553  1  0.09521376  0.29922091  0.93847552  1
  C  C554  1  0.04277009  0.45257888  0.95974407  1
  O  O555  1  0.23686777  0.38594001  0.91227365  1
  C  C556  1  0.11749797  0.33233304  0.87889502  1
  H  H557  1  0.26399814  0.41400950  0.82192937  1
  O  O558  1  0.24390575  0.33519809  0.83122837  1
  N  N559  1  0.41800506  0.28118953  0.83802487  1
  C  C560  1  0.45211827  0.40513535  0.97539954  1
  C  C561  1  0.14441014  0.40540662  0.76613177  1
  H  H562  1  0.23162571  0.47628912  0.98920012  1
  O  O563  1  0.43079001  0.38298665  0.99849511  1
  H  H564  1  0.49018449  0.33043958  0.99904871  1
  H  H565  1  0.15837656  0.59993042  0.10570631  1
  H  H566  1  0.16091064  0.65117237  0.19743785  1
  C  C567  1  0.16745579  0.57374783  0.08498333  1
  C  C568  1  0.13457477  0.67408257  0.21273857  1
  C  C569  1  0.20979139  0.63591138  0.04891864  1
  C  C570  1  0.19677219  0.58600180  0.05383737  1
  O  O571  1  0.19019228  0.66904743  0.06814372  1
  O  O572  1  0.11858040  0.55227444  0.14485878  1
  O  O573  1  0.24594012  0.64516244  0.02464304  1
  C  C574  1  0.23917917  0.70775445  0.15848576  1
  C  C575  1  0.27667054  0.71113498  0.18685320  1
  O  O576  1  0.29247147  0.62963760  0.19271720  1
  H  H577  1  0.23427649  0.67219221  0.14746897  1
  C  C578  1  0.30665640  0.67265815  0.20484276  1
  Cu  Cu579  1  0.22615414  0.72379639  0.07262883  1
  Cu  Cu580  1  0.42171905  0.66591312  0.22027348  1
  N  N581  1  0.41330051  0.70080114  0.17350328  1
  C  C582  1  0.38769212  0.55116919  0.16553956  1
  H  H583  1  0.41235119  0.67595926  0.15347427  1
  H  H584  1  0.36702590  0.56521224  0.14103717  1
  H  H585  1  0.31928659  0.60799461  0.20713401  1
  O  O586  1  0.33637004  0.68726091  0.11515855  1
  C  C587  1  0.35889145  0.65964739  0.09721482  1
  C  C588  1  0.21550434  0.55232675  0.03033281  1
  C  C589  1  0.15589689  0.52637594  0.09280378  1
  C  C590  1  0.38593649  0.62116341  0.07629469  1
  C  C591  1  0.44158681  0.56681301  0.17745230  1
  C  C592  1  0.35166060  0.58325585  0.06277634  1
  H  H593  1  0.30541647  0.58104481  0.06569587  1
  C  C594  1  0.08484729  0.69294890  0.19896911  1
  Cu  Cu595  1  0.27943637  0.70197459  0.01647779  1
  H  H596  1  0.43321936  0.71548920  0.10310947  1
  C  C597  1  0.12396308  0.51489884  0.12638422  1
  O  O598  1  0.34408680  0.67923375  0.22876084  1
  O  O599  1  0.08764011  0.65032986  0.14500183  1
  C  C600  1  0.04544680  0.71858307  0.21909080  1
  C  C601  1  0.07328986  0.68749126  0.16027496  1
  C  C602  1  0.04100728  0.63337707  0.07843323  1
  N  N603  1  0.03295016  0.59296409  0.09547982  1
  C  C604  1  0.44895436  0.62422591  0.07155237  1
  C  C605  1  0.44747057  0.55292625  0.03900210  1
  C  C606  1  0.38422107  0.55072213  0.04260013  1
  H  H607  1  0.06313998  0.65960180  0.09734114  1
  Cu  Cu608  1  0.05013490  0.58547927  0.14978270  1
  C  C609  1  0.36363410  0.51689776  0.18839347  1
  O  O610  1  0.04896135  0.71889184  0.14332438  1
  H  H611  1  0.37295555  0.71409372  0.17316304  1
  C  C612  1  0.45253360  0.73676431  0.15780398  1
  C  C613  1  0.47303823  0.54781486  0.20655113  1
  C  C614  1  0.45493351  0.74075615  0.12026292  1
  C  C615  1  0.19737918  0.50488538  0.03660307  1
  N  N616  1  0.47137318  0.60467041  0.15875725  1
  C  C617  1  0.44900322  0.51143609  0.22691619  1
  O  O618  1  0.05649225  0.72642802  0.05209558  1
  C  C619  1  0.03756267  0.69715090  0.03307657  1
  C  C620  1  0.47921979  0.59356909  0.05102400  1
  H  H621  1  0.47883984  0.65254723  0.08129433  1
  H  H622  1  0.13609487  0.73221614  0.11501308  1
  H  H623  1  0.00908735  0.73548484  0.20685004  1
  C  C624  1  0.02185028  0.64795399  0.04420941  1
  O  O625  1  0.06349784  0.50426510  0.24286851  1
  C  C626  1  0.30478669  0.50084337  0.18350582  1
  H  H627  1  0.23783591  0.56654782  0.00627011  1
  H  H628  1  0.27814849  0.52126928  0.16456749  1
  O  O629  1  0.48353631  0.73832052  0.05077103  1
  C  C630  1  0.47553031  0.51934949  0.01883274  1
  C  C631  1  0.11862237  0.50476287  0.24912021  1
  C  C632  1  0.01300046  0.56161499  0.07374654  1
  H  H633  1  0.01105124  0.52569062  0.08415645  1
  O  O634  1  0.49883192  0.65128050  0.20889923  1
  C  C635  1  0.21369788  0.74787129  0.14409135  1
  C  C636  1  0.14482874  0.67958595  0.24991676  1
  H  H637  1  0.22354890  0.64370424  0.24384447  1
  Cu  Cu638  1  0.49899581  0.71991422  0.00449004  1
  H  H639  1  0.48727118  0.59142096  0.13550979  1
  N  N640  1  0.17542712  0.74749899  0.11353103  1
  C  C641  1  0.35605314  0.50947591  0.02747914  1
  H  H642  1  0.31035332  0.50929976  0.03143707  1
  H  H643  1  0.47214794  0.92950560  0.02647039  1
  H  H644  1  0.09869794  0.98214666  0.03697131  1
  C  C645  1  0.10197604  0.98880146  0.15032189  1
  O  O646  1  0.01080533  0.83105735  0.06041441  1
  C  C647  1  0.29254043  0.75738760  0.19828999  1
  N  N648  1  0.06311209  0.98984334  0.12543342  1
  C  C649  1  0.46876668  0.99917239  0.06622852  1
  H  H650  1  0.02944864  0.97376045  0.02571694  1
  C  C651  1  0.28712148  0.94504261  0.11161941  1
  H  H652  1  0.32296306  0.75984479  0.21997893  1
  H  H653  1  0.03177399  0.94480246  0.24062497  1
  C  C654  1  0.48672090  0.76641809  0.17971141  1
  O  O655  1  0.27221958  0.77538843  0.07485594  1
  H  H656  1  0.00980611  0.95735292  0.17563468  1
  C  C657  1  0.10208157  0.87093223  0.13463140  1
  C  C658  1  0.30683357  0.78648877  0.05126170  1
  H  H659  1  0.48144468  0.76574032  0.20830648  1
  C  C660  1  0.34888330  0.82319235  0.06085266  1
  C  C661  1  0.22115444  0.79203294  0.16029300  1
  H  H662  1  0.32924196  0.92912471  0.06335250  1
  N  N663  1  0.07108506  0.97452266  0.01645566  1
  C  C664  1  0.40453516  0.87719205  0.14605308  1
  C  C665  1  0.38530732  0.84010879  0.03507625  1
  C  C666  1  0.42317784  0.87655661  0.04612152  1
  O  O667  1  0.38470413  0.85017785  0.16923741  1
  C  C668  1  0.24155794  0.93663280  0.13601165  1
  H  H669  1  0.24397224  0.95371109  0.16143351  1
  H  H670  1  0.13747450  0.96885058  0.14035713  1
  H  H671  1  0.25124305  0.87489691  0.03872193  1
  H  H672  1  0.38170026  0.82859222  0.00777743  1
  O  O673  1  0.32187003  0.83653770  0.22849247  1
  C  C674  1  0.35737770  0.83640530  0.09673630  1
  C  C675  1  0.28080613  0.84118719  0.20514160  1
  C  C676  1  0.10033226  0.86135601  0.09647667  1
  H  H677  1  0.46025363  0.91868627  0.08953548  1
  H  H678  1  0.33243061  0.81944516  0.11637008  1
  C  C679  1  0.14552845  0.86894111  0.07128311  1
  C  C680  1  0.05053491  0.84296842  0.07790238  1
  H  H681  1  0.14959205  0.90280460  0.17655055  1
  C  C682  1  0.19581912  0.88795297  0.08585628  1
  H  H683  1  0.14183030  0.85729226  0.04320692  1
  C  C684  1  0.39854565  0.86736734  0.10772305  1
  C  C685  1  0.42768066  0.89228744  0.08140375  1
  C  C686  1  0.24596370  0.89445753  0.06482679  1
  C  C687  1  0.49385976  0.77298714  0.10642346  1
  H  H688  1  0.44175041  0.99977944  0.09006187  1
  O  O689  1  0.14290256  0.97013128  0.23344705  1
  H  H690  1  0.06748320  0.86545250  0.15229190  1
  C  C691  1  0.26431735  0.79683174  0.18477791  1
  N  N692  1  0.45820878  0.89653048  0.01880546  1
  C  C693  1  0.28939150  0.92270930  0.07817531  1
  N  N694  1  0.33285167  0.97554119  0.12321362  1
  C  C695  1  0.19928070  0.90442561  0.12458370  1
  C  C696  1  0.15260578  0.89195725  0.14772381  1
  O  O697  1  0.30929750  0.76404057  0.02188991  1
  O  O698  1  0.25124938  0.87451211  0.20000143  1
  H  H699  1  0.36474842  0.95190242  0.12943470  1
  O  O700  1  0.43622816  0.91278543  0.15422924  1
  Cu  Cu701  1  0.39187328  0.86553535  0.21748691  1
  H  H702  1  0.19993654  0.82570330  0.15194585  1
  H  H703  1  0.16558855  0.78187093  0.10887377  1
  C  C704  1  0.05254338  0.61461636  0.34149196  1
  O  O705  1  0.05818513  0.64644962  0.36447438  1
  C  C706  1  0.10287429  0.59523301  0.32383088  1
  Cu  Cu707  1  0.10712974  0.65048748  0.40752327  1
  N  N708  1  0.06813673  0.66069495  0.45717338  1
  C  C709  1  0.15987435  0.60105849  0.33227340  1
  H  H710  1  0.17584794  0.62426748  0.35332066  1
  O  O711  1  0.12056131  0.58699240  0.41505889  1
  C  C712  1  0.20277024  0.57496314  0.31542936  1
  C  C713  1  0.16725715  0.56850827  0.40626247  1
  N  N714  1  0.25836963  0.57981077  0.32936793  1
  O  O715  1  0.21456482  0.58809771  0.41056044  1
  C  C716  1  0.37413336  0.67624005  0.47459334  1
  O  O717  1  0.32316761  0.54397589  0.44698136  1
  Cu  Cu718  1  0.25771486  0.57658296  0.45357242  1
  O  O719  1  0.36369127  0.71332306  0.45767833  1
  C  C720  1  0.41993647  0.64453977  0.46085851  1
  H  H721  1  0.42446715  0.52231956  0.42091029  1
  H  H722  1  0.10143851  0.67148717  0.47429253  1
  C  C723  1  0.43403784  0.60131844  0.47779674  1
  H  H724  1  0.28091533  0.54952081  0.33217276  1
  H  H725  1  0.11289231  0.70385868  0.29979044  1
  H  H726  1  0.43393608  0.69360616  0.41785446  1
  C  C727  1  0.09405944  0.56592151  0.29395911  1
  C  C728  1  0.19102717  0.53951206  0.28912895  1
  H  H729  1  0.05044877  0.56483128  0.28317104  1
  H  H730  1  0.07508126  0.52209782  0.39512345  1
  C  C731  1  0.44846200  0.66165887  0.43073810  1
  C  C732  1  0.16480822  0.52158804  0.38909548  1
  H  H733  1  0.25395285  0.51481276  0.38208177  1
  C  C734  1  0.13566634  0.53884432  0.27848992  1
  C  C735  1  0.41290046  0.56382222  0.29997706  1
  H  H736  1  0.36614595  0.57090465  0.30406988  1
  C  C737  1  0.10532382  0.70255432  0.27194592  1
  H  H738  1  0.26236060  0.59388617  0.35391989  1
  H  H739  1  0.21744748  0.67250952  0.27960130  1
  C  C740  1  0.44994677  0.59564130  0.28292108  1
  C  C741  1  0.47812553  0.57363210  0.46470648  1
  H  H742  1  0.38563300  0.64763418  0.28331749  1
  N  N743  1  0.42446860  0.64078276  0.27174980  1
  H  H744  1  0.22083447  0.51685608  0.27611416  1
  C  C745  1  0.48503340  0.52599436  0.47847343  1
  C  C746  1  0.44023114  0.52240165  0.30973122  1
  O  O747  1  0.10912881  0.71729871  0.40262013  1
  C  C748  1  0.05750752  0.72542169  0.25502523  1
  N  N749  1  0.19465052  0.65704886  0.26097231  1
  O  O750  1  0.29544547  0.66852132  0.32057205  1
  C  C751  1  0.11091478  0.50354110  0.38122419  1
  O  O752  1  0.20778539  0.56929985  0.49316041  1
  C  C753  1  0.03719394  0.61734445  0.46500637  1
  H  H754  1  0.04543908  0.69099158  0.45745709  1
  C  C755  1  0.30416706  0.70450421  0.31458595  1
  O  O756  1  0.00493956  0.59386173  0.33777122  1
  H  H757  1  0.44471638  0.66651725  0.28510345  1
  H  H758  1  0.18614755  0.74191394  0.45069585  1
  C  C759  1  0.49792812  0.51452174  0.30488218  1
  C  C760  1  0.14032469  0.74197149  0.38325023  1
  C  C761  1  0.31610624  0.50088753  0.44190702  1
  C  C762  1  0.01697760  0.74979341  0.27749533  1
  O  O763  1  0.12657538  0.74663183  0.35025447  1
  C  C764  1  0.00671853  0.59326293  0.43857270  1
  C  C765  1  0.49243448  0.63304539  0.41870406  1
  Cu  Cu766  1  0.00059443  0.53222817  0.35095808  1
  H  H767  1  0.00366819  0.60598139  0.41201883  1
  H  H768  1  0.38368113  0.99316349  0.36924885  1
  H  H769  1  0.49237228  0.99794615  0.29698978  1
  H  H770  1  0.00031177  0.96097041  0.42849905  1
  C  C771  1  0.00718301  0.80626513  0.46092324  1
  O  O772  1  0.03034373  0.75615027  0.30988667  1
  O  O773  1  0.24712153  0.76392221  0.49653462  1
  C  C774  1  0.41231992  0.90439783  0.33177220  1
  C  C775  1  0.05723247  0.97168701  0.32098874  1
  H  H776  1  0.31662670  0.84901825  0.42331570  1
  C  C777  1  0.12383853  0.93364602  0.37519983  1
  H  H778  1  0.18690202  0.86263025  0.46581426  1
  H  H779  1  0.05722964  0.90987386  0.47060493  1
  C  C780  1  0.43681193  0.79561923  0.40963298  1
  H  H781  1  0.00366545  0.90818134  0.30031248  1
  C  C782  1  0.06568358  0.95105529  0.38428562  1
  Cu  Cu783  1  0.08251313  0.79308332  0.34080081  1
  H  H784  1  0.40368545  0.92872610  0.30992040  1
  C  C785  1  0.11586007  0.96022547  0.31352362  1
  C  C786  1  0.01954201  0.99389735  0.29504654  1
  C  C787  1  0.25831876  0.83241670  0.38174633  1
  H  H788  1  0.40875230  0.97282364  0.40699735  1
  H  H789  1  0.19879157  0.80056197  0.34517518  1
  C  C790  1  0.41980435  0.84208205  0.28607828  1
  C  C791  1  0.21350513  0.80118955  0.37196956  1
  O  O792  1  0.37242552  0.95205747  0.45055745  1
  C  C793  1  0.42899695  0.82200201  0.34910582  1
  C  C794  1  0.12654515  0.89828691  0.43384206  1
  C  C795  1  0.07550294  0.92078772  0.44461506  1
  H  H796  1  0.18136279  0.98674560  0.44861772  1
  C  C797  1  0.05338629  0.83689570  0.40892009  1
  O  O798  1  0.32028707  0.81084569  0.48454167  1
  H  H799  1  0.43503512  0.78563888  0.33864513  1
  H  H800  1  0.09290536  0.85002538  0.39581189  1
  C  C801  1  0.42313168  0.88482853  0.39546375  1
  C  C802  1  0.15226628  0.90673797  0.40033399  1
  C  C803  1  0.27997324  0.82791631  0.41661469  1
  O  O804  1  0.43059779  0.80263584  0.27708998  1
  N  N805  1  0.14796447  0.85859823  0.45596485  1
  Cu  Cu806  1  0.38319467  0.77790730  0.47362234  1
  H  H807  1  0.42431863  0.89387824  0.42248938  1
  O  O808  1  0.03695712  0.84972877  0.33824365  1
  H  H809  1  0.19519690  0.93700759  0.33671315  1
  C  C810  1  0.05587528  0.82440601  0.44371598  1
  C  C811  1  0.03233366  0.96850892  0.35527286  1
  C  C812  1  0.41276852  0.91856148  0.36832331  1
  O  O813  1  0.44112822  0.80317075  0.44430961  1
  C  C814  1  0.14916895  0.94298434  0.34043283  1
  N  N815  1  0.40085883  0.96394652  0.38109617  1
  H  H816  1  0.13368544  0.96297330  0.28576654  1
  C  C817  1  0.27115459  0.79195032  0.47778633  1
  C  C818  1  0.34613710  0.96669023  0.47464251  1
  O  O819  1  0.40676612  0.87762665  0.26415115  1
  C  C820  1  0.20632181  0.76753185  0.43140001  1
  C  C821  1  0.10786827  0.82798129  0.46877284  1
  H  H822  1  0.26965368  0.98486020  0.40729025  1
  O  O823  1  0.43611212  0.75696399  0.39689096  1
  H  H824  1  0.28458707  0.85901216  0.33231232  1
  C  C825  1  0.04451883  0.94909194  0.42061426  1
  C  C826  1  0.42715646  0.83717655  0.38449025  1
  C  C827  1  0.42067123  0.85886507  0.32463021  1
  C  C828  1  0.18880592  0.76950255  0.39581121  1
  N  N829  1  0.28345995  0.86495775  0.35861267  1
  C  C830  1  0.25373964  0.79586973  0.43923701  1
  H  H831  1  0.19559674  0.88878269  0.39645576  1
  H  H832  1  0.32264064  0.88081110  0.36683569  1
  O  O833  1  0.11151547  0.80703149  0.49601761  1
  O  O834  1  0.34640379  0.61278022  0.65648317  1
  C  C835  1  0.31730730  0.58534934  0.63634070  1
  O  O836  1  0.30369182  0.54323259  0.64371869  1
  C  C837  1  0.29095775  0.60703662  0.60507586  1
  H  H838  1  0.17866875  0.70967029  0.60211605  1
  C  C839  1  0.29298470  0.65521561  0.60086381  1
  C  C840  1  0.26241338  0.57549365  0.58231726  1
  C  C841  1  0.13552273  0.70055331  0.59089947  1
  C  C842  1  0.24098169  0.63920503  0.54435850  1
  C  C843  1  0.24162037  0.58958157  0.54965920  1
  H  H844  1  0.26097700  0.53601659  0.58915592  1
  C  C845  1  0.46458063  0.70069639  0.63829322  1
  Cu  Cu846  1  0.39972511  0.59446235  0.69463147  1
  H  H847  1  0.42751103  0.67746209  0.62957850  1
  O  O848  1  0.46244841  0.61225407  0.66536489  1
  C  C849  1  0.04600027  0.65863421  0.58297759  1
  O  O850  1  0.38367780  0.73015564  0.58916399  1
  O  O851  1  0.08561406  0.59096859  0.62883264  1
  C  C852  1  0.26725264  0.67059178  0.56812586  1
  H  H853  1  0.06099393  0.61635224  0.52067621  1
  H  H854  1  0.18121657  0.59628785  0.68159024  1
  C  C855  1  0.22659241  0.55302757  0.52287512  1
  O  O856  1  0.22539098  0.51127991  0.53085738  1
  H  H857  1  0.30994709  0.67895415  0.62122649  1
  N  N858  1  0.17998069  0.56620255  0.69829133  1
  C  C859  1  0.09952371  0.66447186  0.60001480  1
  C  C860  1  0.11743451  0.62655790  0.62729157  1
  H  H861  1  0.22282004  0.65417452  0.52003478  1
  Cu  Cu862  1  0.36745108  0.69842138  0.54588838  1
  O  O863  1  0.15925359  0.63154889  0.64574341  1
  Cu  Cu864  1  0.09266983  0.52888771  0.60412129  1
  O  O865  1  0.05906061  0.55570711  0.56472797  1
  H  H866  1  0.22759854  0.68018332  0.70703561  1
  C  C867  1  0.24104793  0.70728170  0.68798206  1
  O  O868  1  0.33814911  0.58098215  0.72728590  1
  O  O869  1  0.44544966  0.69933158  0.53519534  1
  N  N870  1  0.27947897  0.71800209  0.55913362  1
  H  H871  1  0.48180981  0.54788199  0.63890228  1
  C  C872  1  0.34183728  0.70411879  0.71093755  1
  C  C873  1  0.39375576  0.72872611  0.71303666  1
  C  C874  1  0.03638295  0.68957091  0.55520485  1
  C  C875  1  0.30070448  0.72151558  0.68687195  1
  H  H876  1  0.33094686  0.67377858  0.72918296  1
  H  H877  1  0.24420169  0.63228350  0.73158753  1
  C  C878  1  0.46654812  0.73126977  0.51594497  1
  C  C879  1  0.46921774  0.74579626  0.62306891  1
  C  C880  1  0.07089619  0.72626590  0.54378818  1
  H  H881  1  0.26222067  0.73184879  0.53536414  1
  C  C882  1  0.02575669  0.53268109  0.54276479  1
  C  C883  1  0.06418958  0.63694274  0.73608776  1
  O  O884  1  0.03293900  0.52095447  0.70030365  1
  O  O885  1  0.29533328  0.51397014  0.71516727  1
  O  O886  1  0.42505211  0.52774625  0.69555156  1
  C  C887  1  0.12364050  0.73194684  0.56296103  1
  H  H888  1  0.14659155  0.54659474  0.69071658  1
  C  C889  1  0.31370860  0.54326009  0.73682212  1
  C  C890  1  0.18048287  0.57550158  0.73550516  1
  H  H891  1  0.01408944  0.63130970  0.59250834  1
  C  C892  1  0.05707271  0.68520267  0.74421958  1
  Cu  Cu893  1  0.24880712  0.52382583  0.67404246  1
  C  C894  1  0.46948147  0.50498878  0.70574683  1
  O  O895  1  0.12297417  0.50132151  0.64116562  1
  C  C896  1  0.01307755  0.55637912  0.50776912  1
  H  H897  1  0.15639230  0.72747431  0.67395649  1
  C  C898  1  0.20215462  0.73211388  0.66804087  1
  H  H899  1  0.28276006  0.74325386  0.57885656  1
  H  H900  1  0.09790560  0.61648621  0.74875112  1
  C  C901  1  0.02492307  0.61176907  0.71410897  1
  C  C902  1  0.03158910  0.56167557  0.70715527  1
  C  C903  1  0.21412401  0.61369206  0.74763286  1
  H  H904  1  0.11823933  0.51890718  0.74617636  1
  O  O905  1  0.34988558  0.66616326  0.50335713  1
  C  C906  1  0.00395875  0.71030305  0.73199807  1
  C  C907  1  0.43385395  0.70870117  0.73859912  1
  C  C908  1  0.04000146  0.59930891  0.50003304  1
  H  H909  1  0.40954342  0.59053165  0.50128331  1
  C  C910  1  0.40877718  0.77124751  0.69276152  1
  C  C911  1  0.31805609  0.76143194  0.66133978  1
  N  N912  1  0.17781148  0.80011799  0.63203425  1
  H  H913  1  0.29254429  0.81504993  0.62338150  1
  C  C914  1  0.10060040  0.82435625  0.71363199  1
  C  C915  1  0.13864053  0.96885388  0.66930810  1
  H  H916  1  0.39284174  0.89286244  0.59249367  1
  H  H917  1  0.43239513  0.89527848  0.72753200  1
  N  N918  1  0.20660729  0.87422993  0.71944475  1
  H  H919  1  0.25568466  0.91890629  0.50482358  1
  C  C920  1  0.42455431  0.76060995  0.59676135  1
  N  N921  1  0.01990977  0.98830792  0.52229764  1
  H  H922  1  0.25811657  0.99504213  0.65603206  1
  H  H923  1  0.13382565  0.93073445  0.61106022  1
  H  H924  1  0.44991849  0.78872136  0.69810008  1
  O  O925  1  0.42066670  0.79888544  0.58384218  1
  C  C926  1  0.33644408  0.98786731  0.62691275  1
  C  C927  1  0.30467606  0.99904992  0.65668070  1
  C  C928  1  0.45569380  0.89550491  0.63375101  1
  C  C929  1  0.29803565  0.88555420  0.63392345  1
  C  C930  1  0.00156702  0.89916800  0.54104871  1
  C  C931  1  0.36639273  0.88606845  0.68541957  1
  O  O932  1  0.08344813  0.77868730  0.64904528  1
  N  N933  1  0.15950602  0.77004783  0.55578195  1
  H  H934  1  0.27566329  0.98503196  0.72546886  1
  C  C935  1  0.19454037  0.84752465  0.69164829  1
  H  H936  1  0.05839725  0.80721571  0.71011723  1
  O  O937  1  0.43675722  0.76846484  0.51066555  1
  H  H938  1  0.22789700  0.85488742  0.67081699  1
  C  C939  1  0.14310271  0.82298243  0.68842589  1
  O  O940  1  0.13735964  0.92737255  0.66622124  1
  C  C941  1  0.40089185  0.89031056  0.62183335  1
  C  C942  1  0.31268808  0.98215176  0.50598466  1
  C  C943  1  0.35572912  0.88399360  0.64831566  1
  H  H944  1  0.04515653  0.77709893  0.60691604  1
  C  C945  1  0.18895333  0.93914365  0.56452181  1
  H  H946  1  0.04108649  0.91713613  0.54847365  1
  C  C947  1  0.23530064  0.96742960  0.54806672  1
  H  H948  1  0.10278986  0.93668885  0.73767103  1
  C  C949  1  0.37389678  0.78427622  0.66553723  1
  H  H950  1  0.16341757  0.79212398  0.60676048  1
  C  C951  1  0.22162969  0.76754258  0.64386705  1
  H  H952  1  0.33123417  0.88454122  0.70564259  1
  H  H953  1  0.38954671  0.81416010  0.64965974  1
  C  C954  1  0.03174876  0.84320480  0.58334855  1
  H  H955  1  0.17858661  0.90704709  0.55091111  1
  C  C956  1  0.16558882  0.95306701  0.59614968  1
  C  C957  1  0.12833304  0.79675009  0.65371358  1
  C  C958  1  0.26498895  0.95294211  0.51746186  1
  H  H959  1  0.20151747  0.76210251  0.55758935  1
  C  C960  1  0.09753907  0.97607830  0.73125921  1
  C  C961  1  0.46630123  0.89355055  0.67345369  1
  O  O962  1  0.25329569  0.88666532  0.62056206  1
  C  C963  1  0.42161621  0.89098319  0.69930902  1
  N  N964  1  0.01377890  0.79801996  0.59444420  1
  C  C965  1  0.27821809  0.78423359  0.63942358  1
  H  H966  1  0.05864531  0.75180782  0.52386122  1
  O  O967  1  0.07076316  0.86694811  0.59188085  1
  H  H968  1  0.31936495  0.96721176  0.60586491  1
  H  H969  1  0.15332896  0.78767717  0.53204737  1
  C  C970  1  0.00102651  0.99201802  0.55953044  1
  H  H971  1  0.40975990  0.98024698  0.57183799  1
  H  H972  1  0.49667648  0.90455823  0.57799321  1
  C  C973  1  0.18633109  0.99524881  0.61414333  1
  C  C974  1  0.04209919  0.99517935  0.58830586  1
  C  C975  1  0.17107304  0.87534911  0.74569342  1
  C  C976  1  0.11847095  0.85102423  0.74399249  1
  H  H977  1  0.08498314  0.99582753  0.58079533  1
  C  C978  1  0.11071743  0.99908195  0.69904072  1
  H  H979  1  0.05897944  0.98909625  0.64539404  1
  C  C980  1  0.02724007  0.99200557  0.62389404  1
  C  C981  1  0.42903886  0.99404273  0.59522067  1
  C  C982  1  0.24542633  0.52448636  0.94138185  1
  C  C983  1  0.29715529  0.54449928  0.94991608  1
  C  C984  1  0.19325196  0.55258869  0.94103708  1
  H  H985  1  0.30061677  0.58266314  0.95538244  1
  C  C986  1  0.20451907  0.62420294  0.78331589  1
  C  C987  1  0.16301975  0.60324851  0.80404160  1
  H  H988  1  0.16099569  0.61355163  0.83239331  1
  C  C989  1  0.13394175  0.56280505  0.79219124  1
  C  C990  1  0.23869679  0.66343615  0.79843210  1
  O  O991  1  0.14528804  0.53661108  0.93217963  1
  O  O992  1  0.23846821  0.67021417  0.83227739  1
  O  O993  1  0.27110461  0.68641654  0.77949677  1
  Cu  Cu994  1  0.29970692  0.69530334  0.85707727  1
  C  C995  1  0.34643715  0.51861951  0.94271810  1
  Cu  Cu996  1  0.10433236  0.54981189  0.89169964  1
  H  H997  1  0.41913383  0.55135909  0.96233800  1
  C  C998  1  0.31618200  0.52009006  0.85004070  1
  Cu  Cu999  1  0.39721155  0.61590920  0.92713241  1
  N  N1000  1  0.39915508  0.54560033  0.93834559  1
  O  O1001  1  0.34859856  0.64407354  0.84485874  1
  O  O1002  1  0.34385254  0.60011973  0.89149961  1
  C  C1003  1  0.32882518  0.56361296  0.83430045  1
  C  C1004  1  0.34216821  0.60388836  0.85873442  1
  O  O1005  1  0.45460447  0.63011574  0.95923121  1
  H  H1006  1  0.43152753  0.53058515  0.92163983  1
  O  O1007  1  0.20019253  0.59645454  0.94645447  1
  Cu  Cu1008  1  0.14370952  0.63691231  0.96506457  1
  C  C1009  1  0.32975645  0.57067307  0.79678007  1
  H  H1010  1  0.33681880  0.60556374  0.78579033  1
  O  O1011  1  0.06957545  0.63846509  0.94616534  1
  C  C1012  1  0.04876953  0.62455518  0.91693903  1
  C  C1013  1  0.31820714  0.53234148  0.77565214  1
  C  C1014  1  0.03836546  0.66306052  0.89101122  1
  O  O1015  1  0.04263139  0.58248583  0.90948105  1
  C  C1016  1  0.05936090  0.70940118  0.89377634  1
  O  O1017  1  0.07845623  0.55951232  0.84720934  1
  C  C1018  1  0.09159470  0.53811941  0.81641044  1
  O  O1019  1  0.24332969  0.71581634  0.97125409  1
  Cu  Cu1020  1  0.33319469  0.72253649  0.79911947  1
  H  H1021  1  0.08733332  0.71950715  0.91501999  1
  O  O1022  1  0.14723596  0.70452637  0.97157282  1
  C  C1023  1  0.19175765  0.72969295  0.96980073  1
  H  H1024  1  0.31279449  0.51511391  0.87872592  1
  O  O1025  1  0.47992917  0.52016857  0.85130232  1
  H  H1026  1  0.13112401  0.69105092  0.78139302  1
  C  C1027  1  0.04705718  0.74292923  0.86765883  1
  C  C1028  1  0.09543280  0.70943182  0.76835608  1
  H  H1029  1  0.48106567  0.57569006  0.90328246  1
  O  O1030  1  0.06705433  0.50308786  0.80688205  1
  C  C1031  1  0.49353366  0.65552538  0.94623314  1
  O  O1032  1  0.46090291  0.68890177  0.75999917  1
  C  C1033  1  0.01004649  0.73148894  0.83985137  1
  H  H1034  1  0.06260778  0.70180767  0.97848702  1
  O  O1035  1  0.36022780  0.73049568  0.87832657  1
  C  C1036  1  0.14406274  0.54824545  0.75666817  1
  C  C1037  1  0.00491827  0.64967784  0.86250374  1
  N  N1038  1  0.02597379  0.70025935  0.99487880  1
  C  C1039  1  0.48860410  0.80310649  0.96884645  1
  H  H1040  1  0.05647382  0.89732252  0.99468576  1
  H  H1041  1  0.14461623  0.98711517  0.88017737  1
  C  C1042  1  0.13049406  0.98609880  0.90860368  1
  C  C1043  1  0.14228735  0.99628803  0.97379154  1
  C  C1044  1  0.44211976  0.77579802  0.91311286  1
  H  H1045  1  0.02646481  0.84391236  0.99371065  1
  O  O1046  1  0.34028133  0.93293216  0.90078781  1
  H  H1047  1  0.01344088  0.75521310  0.93582324  1
  N  N1048  1  0.03180347  0.82759401  0.77051886  1
  H  H1049  1  0.47244333  0.78477118  0.77005609  1
  H  H1050  1  0.15006237  0.91701168  0.98360904  1
  N  N1051  1  0.06131113  0.86345830  0.98544673  1
  C  C1052  1  0.16091025  0.87962407  0.97726666  1
  Cu  Cu1053  1  0.30584938  0.98320870  0.98139677  1
  C  C1054  1  0.23802466  0.89627181  0.87527856  1
  C  C1055  1  0.19431844  0.83840898  0.83355836  1
  H  H1056  1  0.45353290  0.90059756  0.99179670  1
  O  O1057  1  0.43823334  0.95419122  0.94578253  1
  C  C1058  1  0.34111015  0.90165968  0.87752844  1
  C  C1059  1  0.03630870  0.77849963  0.76242978  1
  H  H1060  1  0.33931423  0.83658877  0.82633195  1
  Cu  Cu1061  1  0.06577122  0.88668458  0.84582240  1
  C  C1062  1  0.44774143  0.87531588  0.78712920  1
  O  O1063  1  0.31255196  0.88293880  0.96396297  1
  H  H1064  1  0.00871101  0.96222878  0.95829681  1
  C  C1065  1  0.29106152  0.88014250  0.86241440  1
  O  O1066  1  0.30543279  0.78208603  0.78015598  1
  O  O1067  1  0.10340384  0.79637736  0.89699582  1
  O  O1068  1  0.40542153  0.85300730  0.78264683  1
  O  O1069  1  0.05608399  0.95004735  0.85624078  1
  C  C1070  1  0.43859039  0.78310097  0.87644752  1
  H  H1071  1  0.12323898  0.85311843  0.89343401  1
  N  N1072  1  0.13740817  0.88226911  0.87797151  1
  H  H1073  1  0.41476167  0.75083514  0.92735292  1
  Cu  Cu1074  1  0.37007614  0.91980429  0.94823947  1
  O  O1075  1  0.08921258  0.88691378  0.79759194  1
  C  C1076  1  0.07279707  0.79114575  0.87165993  1
  H  H1077  1  0.11559976  0.77254740  0.79464433  1
  C  C1078  1  0.08716938  0.97983420  0.98124607  1
  O  O1079  1  0.38944208  0.75822113  0.82574165  1
  C  C1080  1  0.12334895  0.79637322  0.97497661  1
  H  H1081  1  0.13442327  0.91113057  0.89584879  1
  O  O1082  1  0.25022136  0.94027650  0.97356675  1
  C  C1083  1  0.07511876  0.97336554  0.91797473  1
  C  C1084  1  0.29636821  0.84617664  0.83547685  1
  C  C1085  1  0.47587025  0.80973678  0.85450273  1
  O  O1086  1  0.06225145  0.82201854  0.84720416  1
  C  C1087  1  0.05254039  0.97044606  0.95219888  1
  C  C1088  1  0.25269628  0.79251972  0.79071705  1
  O  O1089  1  0.38570735  0.88588682  0.86214348  1
  H  H1090  1  0.08866906  0.77212731  0.97799763  1
  O  O1091  1  0.21210903  0.77959186  0.77514548  1
  H  H1092  1  0.26782231  0.79989466  0.97028727  1
  Cu  Cu1093  1  0.44941986  0.92423270  0.85072054  1
  C  C1094  1  0.08021313  0.85670975  0.77415851  1
  C  C1095  1  0.21632060  0.86217418  0.97422424  1
  C  C1096  1  0.47437013  0.95526641  0.92081655  1
  C  C1097  1  0.47971505  0.80679587  0.93059982  1
  C  C1098  1  0.19150391  0.87173860  0.86140404  1
  C  C1099  1  0.08571576  0.75523455  0.77725291  1
  C  C1100  1  0.39242511  0.75622911  0.85967076  1
  C  C1101  1  0.26213274  0.89738554  0.96985873  1
  H  H1102  1  0.47486700  0.80955601  0.82509454  1
  O  O1103  1  0.46134069  0.96587066  0.88841024  1
  H  H1104  1  0.15639731  0.82823428  0.81988766  1
  O  O1105  1  0.44596575  0.91679819  0.80207801  1
  C  C1106  1  0.11620573  0.84710058  0.97933574  1
  C  C1107  1  0.22378482  0.81349914  0.97237366  1
  C  C1108  1  0.17893591  0.78137695  0.97103277  1
  C  C1109  1  0.03470489  0.96203746  0.88726485  1
  C  C1110  1  0.24742102  0.82695322  0.82123380  1
  O  O1111  1  0.46147086  0.77133837  0.98754095  1
  H  H1112  1  0.18937242  0.89846633  0.76713902  1
  H  H1113  1  0.23054473  0.92210400  0.89757709  1
  N  N1114  1  0.07299129  0.99763437  0.75840354  1
  C  C1115  1  0.70874587  0.11825486  0.16878822  1
  H  H1116  1  0.87441825  0.15123616  0.17139993  1
  C  C1117  1  0.79463143  0.15411274  0.19934943  1
  C  C1118  1  0.82811860  0.14213708  0.17040058  1
  C  C1119  1  0.80337806  0.11276844  0.14405471  1
  N  N1120  1  0.83703623  0.10204770  0.11245344  1
  O  O1121  1  0.79532859  0.08123846  0.05759575  1
  C  C1122  1  0.80217949  0.10641934  0.08183576  1
  C  C1123  1  0.77482597  0.15589109  0.07982628  1
  C  C1124  1  0.74532684  0.09899329  0.14319420  1
  H  H1125  1  0.85497609  0.06886233  0.11719012  1
  H  H1126  1  0.72978065  0.08154966  0.11811293  1
  H  H1127  1  0.66259759  0.11333466  0.16506221  1
  N  N1128  1  0.91540809  0.07466661  0.03797944  1
  C  C1129  1  0.54046014  0.09907271  0.06894260  1
  C  C1130  1  0.59550507  0.12347781  0.06953059  1
  C  C1131  1  0.60479328  0.17519422  0.07167812  1
  H  H1132  1  0.88148272  0.05172552  0.03455527  1
  H  H1133  1  0.90304870  0.13742398  0.07841945  1
  H  H1134  1  0.53773385  0.06118973  0.06728162  1
  C  C1135  1  0.75987625  0.16594814  0.04559078  1
  H  H1136  1  0.77090043  0.18610185  0.13623751  1
  C  C1137  1  0.56301079  0.06218959  0.16815962  1
  C  C1138  1  0.58461098  0.14404469  0.17939495  1
  C  C1139  1  0.88290084  0.06934063  0.22151481  1
  C  C1140  1  0.59531029  0.18851538  0.16376567  1
  C  C1141  1  0.82949754  0.05002901  0.20956446  1
  C  C1142  1  0.56868785  0.05351897  0.20754007  1
  C  C1143  1  0.57252824  0.13713644  0.21801362  1
  C  C1144  1  0.57173157  0.09174854  0.23264651  1
  C  C1145  1  0.56766141  0.17745886  0.24171932  1
  H  H1146  1  0.56817305  0.10804896  0.12539742  1
  C  C1147  1  0.57167230  0.10592658  0.15407392  1
  C  C1148  1  0.94561521  0.13285186  0.08851548  1
  C  C1149  1  0.94007333  0.20578298  0.12492303  1
  N  N1150  1  0.93324500  0.07085908  0.20146040  1
  C  C1151  1  0.72413820  0.03256605  0.22310877  1
  H  H1152  1  0.82710848  0.04109160  0.18146071  1
  H  H1153  1  0.77235347  0.14075531  0.02525162  1
  O  O1154  1  0.90698615  0.03409054  0.14655040  1
  C  C1155  1  0.93848505  0.04334075  0.17095471  1
  H  H1156  1  0.71847571  0.01968897  0.19576296  1
  C  C1157  1  0.96735517  0.05706044  0.05389237  1
  C  C1158  1  0.55837481  0.20481358  0.06965164  1
  H  H1159  1  0.59854020  0.19360723  0.13348802  1
  C  C1160  1  0.76247878  0.18864103  0.10734441  1
  C  C1161  1  0.73166197  0.14359281  0.20010835  1
  C  C1162  1  0.78095173  0.04726666  0.23246049  1
  H  H1163  1  0.89100177  0.19712700  0.04761093  1
  C  C1164  1  0.64368276  0.08992744  0.07153265  1
  O  O1165  1  0.67766636  0.05998468  0.07394026  1
  O  O1166  1  0.88763939  0.21147963  0.12124464  1
  H  H1167  1  0.64842180  0.18959162  0.07355167  1
  C  C1168  1  0.60334822  0.22432260  0.18948160  1
  C  C1169  1  0.58640275  0.21973353  0.22616208  1
  H  H1170  1  0.64879572  0.11406479  0.01500621  1
  H  H1171  1  0.64363461  0.00871721  0.24038715  1
  C  C1172  1  0.73401851  0.21044369  0.03897711  1
  H  H1173  1  0.96946400  0.07611937  0.21580717  1
  C  C1174  1  0.97387964  0.16379214  0.11317098  1
  H  H1175  1  0.72741887  0.05853491  0.01776366  1
  O  O1176  1  0.89130793  0.23045875  0.05183709  1
  C  C1177  1  0.82343208  0.17729090  0.22901466  1
  H  H1178  1  0.56269207  0.24423800  0.06879762  1
  O  O1179  1  0.98877085  0.01904242  0.05344116  1
  N  N1180  1  0.73757090  0.23065297  0.10043038  1
  H  H1181  1  0.86767870  0.18461725  0.22702371  1
  H  H1182  1  0.54850711  0.03352170  0.14944267  1
  H  H1183  1  0.65665338  0.14117235  0.23420140  1
  C  C1184  1  0.68122407  0.02920444  0.24820914  1
  C  C1185  1  0.70038133  0.15468930  0.23026125  1
  C  C1186  1  0.88789563  0.23949616  0.00991981  1
  C  C1187  1  0.56024075  0.00442165  0.21632303  1
  C  C1188  1  0.99900959  0.02903645  0.16620101  1
  C  C1189  1  0.98239092  0.09639215  0.07866105  1
  C  C1190  1  0.53974009  0.01335336  0.00459674  1
  C  C1191  1  0.72230806  0.24040446  0.06766583  1
  C  C1192  1  0.92618682  0.09861450  0.00510258  1
  C  C1193  1  0.99018043  0.23783847  0.16492258  1
  H  H1194  1  0.98604404  0.00526505  0.10967933  1
  N  N1195  1  0.97714010  0.24439854  0.12681987  1
  H  H1196  1  0.90150738  0.23844348  0.18647191  1
  C  C1197  1  0.94661175  0.24022486  0.19225629  1
  C  C1198  1  0.50298812  0.18134003  0.06985009  1
  C  C1199  1  0.71195163  0.23065051  0.00360466  1
  C  C1200  1  0.97538033  0.12630885  0.00230616  1
  H  H1201  1  0.88214596  0.26309212  0.24334271  1
  H  H1202  1  0.92658548  0.36846683  0.18294458  1
  C  C1203  1  0.90457288  0.28907312  0.00054171  1
  C  C1204  1  0.50685459  0.45809878  0.13320223  1
  H  H1205  1  0.99971262  0.26375050  0.01831377  1
  H  H1206  1  0.92346782  0.43886451  0.04003294  1
  H  H1207  1  0.59581541  0.25170570  0.24336088  1
  C  C1208  1  0.50824922  0.28990958  0.17650050  1
  C  C1209  1  0.85521969  0.32515386  0.13830518  1
  C  C1210  1  0.54860736  0.48448809  0.15510376  1
  H  H1211  1  0.70488756  0.32150506  0.23688691  1
  H  H1212  1  0.51813954  0.25337189  0.16605519  1
  H  H1213  1  0.66179416  0.27231336  0.16497971  1
  N  N1214  1  0.62069640  0.26923423  0.17405220  1
  N  N1215  1  0.92708476  0.40296057  0.04752266  1
  O  O1216  1  0.97435148  0.39373441  0.23393638  1
  O  O1217  1  0.94878027  0.49661447  0.03659370  1
  H  H1218  1  0.56008775  0.44737668  0.08487618  1
  C  C1219  1  0.96801311  0.25007137  0.22636923  1
  H  H1220  1  0.91110671  0.30911159  0.05470368  1
  C  C1221  1  0.88942561  0.35338215  0.19726917  1
  C  C1222  1  0.54417287  0.31925267  0.19605260  1
  O  O1223  1  0.88715842  0.35016400  0.12105249  1
  C  C1224  1  0.79397309  0.32425813  0.23512820  1
  H  H1225  1  0.70341752  0.27725873  0.06759571  1
  Cu  Cu1226  1  0.85494716  0.25819602  0.08989949  1
  H  H1227  1  0.91767378  0.40003450  0.07416185  1
  O  O1228  1  0.94667482  0.48767932  0.24358130  1
  C  C1229  1  0.51699038  0.44494131  0.09633176  1
  C  C1230  1  0.92290759  0.36932004  0.02132062  1
  H  H1231  1  0.55135011  0.38767135  0.22885288  1
  C  C1232  1  0.60682693  0.30472908  0.19880260  1
  O  O1233  1  0.63660783  0.32434621  0.22104087  1
  C  C1234  1  0.79906373  0.31535340  0.19751090  1
  O  O1235  1  0.82447513  0.29200321  0.12582695  1
  H  H1236  1  0.96180265  0.27983020  0.12541903  1
  C  C1237  1  0.84649833  0.33083826  0.17881517  1
  H  H1238  1  0.76695372  0.29527493  0.18398987  1
  C  C1239  1  0.90922600  0.32124773  0.02881629  1
  C  C1240  1  0.88483929  0.35768309  0.23444648  1
  C  C1241  1  0.52565623  0.36235768  0.21335442  1
  O  O1242  1  0.61234401  0.47713736  0.04554299  1
  O  O1243  1  0.69138414  0.26925297  0.00067116  1
  H  H1244  1  0.65594312  0.07486051  0.37983595  1
  C  C1245  1  0.63544374  0.09324373  0.40238302  1
  C  C1246  1  0.59576594  0.13247278  0.39896702  1
  H  H1247  1  0.59649206  0.13862340  0.34076647  1
  C  C1248  1  0.57293326  0.15245180  0.43267690  1
  C  C1249  1  0.58127365  0.15089575  0.36581974  1
  H  H1250  1  0.84675167  0.05751417  0.43327115  1
  C  C1251  1  0.59830665  0.13797404  0.46511795  1
  O  O1252  1  0.93544259  0.13637468  0.42279351  1
  C  C1253  1  0.65517926  0.07809207  0.43533058  1
  H  H1254  1  0.87046443  0.14204002  0.44434520  1
  C  C1255  1  0.86087038  0.08764297  0.37862900  1
  N  N1256  1  0.81482726  0.08619315  0.36038047  1
  C  C1257  1  0.94573539  0.09459161  0.42078933  1
  C  C1258  1  0.90610507  0.06509135  0.39859792  1
  H  H1259  1  0.75411717  0.06918204  0.32167934  1
  H  H1260  1  0.85527505  0.08611450  0.31151044  1
  C  C1261  1  0.90194529  0.17411543  0.32020029  1
  C  C1262  1  0.74712136  0.05797089  0.29470160  1
  C  C1263  1  0.64328652  0.04876666  0.30974822  1
  O  O1264  1  0.85936647  0.19278307  0.32686380  1
  C  C1265  1  0.84629407  0.07470643  0.28277638  1
  C  C1266  1  0.95559143  0.15148980  0.31226170  1
  C  C1267  1  0.69479551  0.19976823  0.28867355  1
  H  H1268  1  0.68805799  0.22631046  0.38183389  1
  O  O1269  1  0.66596435  0.21250178  0.31143995  1
  C  C1270  1  0.69075621  0.04308375  0.28504047  1
  C  C1271  1  0.79107683  0.05949386  0.26988827  1
  H  H1272  1  0.80780629  0.20416506  0.28258425  1
  C  C1273  1  0.52847736  0.18880455  0.43543137  1
  C  C1274  1  0.53772021  0.18795659  0.36948914  1
  H  H1275  1  0.93474732  0.08462200  0.26761181  1
  C  C1276  1  0.72816117  0.18155749  0.25825229  1
  C  C1277  1  0.78921250  0.19014752  0.25787084  1
  H  H1278  1  0.95863724  0.10397705  0.36020957  1
  N  N1279  1  0.83945534  0.13930438  0.46474563  1
  C  C1280  1  0.63837695  0.10158652  0.46744338  1
  H  H1281  1  0.75066328  0.20745583  0.38441607  1
  C  C1282  1  0.83095152  0.04423307  0.36481756  1
  O  O1283  1  0.60362241  0.05049467  0.32817706  1
  H  H1284  1  0.68506035  0.05059331  0.43903715  1
  C  C1285  1  0.83669698  0.05218384  0.46084371  1
  H  H1286  1  0.70855420  0.24576103  0.48699758  1
  C  C1287  1  0.89063526  0.07624964  0.25919065  1
  C  C1288  1  0.51700133  0.20842750  0.33556330  1
  C  C1289  1  0.51124097  0.20382323  0.40223538  1
  N  N1290  1  0.72767679  0.23807579  0.38613995  1
  C  C1291  1  0.83004640  0.17870922  0.48710566  1
  H  H1292  1  0.97804733  0.03105703  0.44540212  1
  H  H1293  1  0.95885346  0.18830547  0.26228565  1
  C  C1294  1  0.97832946  0.11186053  0.33503337  1
  C  C1295  1  0.97872935  0.15954657  0.27684327  1
  H  H1296  1  0.58728338  0.15383636  0.49024855  1
  C  C1297  1  0.90606973  0.01552300  0.39522072  1
  N  N1298  1  0.99089040  0.06608175  0.43615760  1
  N  N1299  1  0.68294307  0.24961618  0.46551511  1
  H  H1300  1  0.55113677  0.17294694  0.26815163  1
  H  H1301  1  0.97953897  0.18122835  0.44827611  1
  C  C1302  1  0.83772259  0.09357219  0.48207852  1
  H  H1303  1  0.74093429  0.11581436  0.48557613  1
  O  O1304  1  0.86239037  0.20985184  0.49320462  1
  H  H1305  1  0.57232666  0.08803736  0.26060499  1
  C  C1306  1  0.81980217  0.00663421  0.47151174  1
  C  C1307  1  0.86019593  0.00127330  0.37329819  1
  H  H1308  1  0.51285550  0.20614804  0.46053503  1
  O  O1309  1  0.99195253  0.01311363  0.27353760  1
  C  C1310  1  0.59438074  0.22970838  0.49724811  1
  O  O1311  1  0.53478567  0.00555706  0.42478503  1
  O  O1312  1  0.64514707  0.47994313  0.41867721  1
  H  H1313  1  0.89246102  0.36236365  0.45791566  1
  C  C1314  1  0.80812888  0.38704632  0.44895946  1
  O  O1315  1  0.91737602  0.49334536  0.42847742  1
  C  C1316  1  0.83859147  0.34415150  0.25514354  1
  H  H1317  1  0.52517203  0.49929379  0.40532212  1
  H  H1318  1  0.70362059  0.27486900  0.45255111  1
  C  C1319  1  0.62507097  0.25987729  0.47393587  1
  H  H1320  1  0.76730700  0.40304547  0.32981301  1
  C  C1321  1  0.51574914  0.28409538  0.48926205  1
  N  N1322  1  0.51117514  0.46575480  0.40048660  1
  H  H1323  1  0.51433595  0.48262270  0.31463100  1
  H  H1324  1  0.62963703  0.32284692  0.43948643  1
  H  H1325  1  0.98304111  0.40273689  0.40889076  1
  N  N1326  1  0.99770358  0.37028505  0.39916369  1
  C  C1327  1  0.68925779  0.45784357  0.40888236  1
  C  C1328  1  0.60517197  0.30242043  0.45865758  1
  C  C1329  1  0.71840563  0.42345581  0.43137698  1
  H  H1330  1  0.73630255  0.32828879  0.27680727  1
  C  C1331  1  0.93348004  0.37838701  0.25238159  1
  H  H1332  1  0.83890609  0.34488938  0.28385601  1
  H  H1333  1  0.88551161  0.39012515  0.41960499  1
  H  H1334  1  0.65366530  0.40922201  0.47149603  1
  C  C1335  1  0.69862627  0.40427873  0.46325877  1
  C  C1336  1  0.66218771  0.38609316  0.32809413  1
  C  C1337  1  0.86264650  0.36347804  0.35409090  1
  O  O1338  1  0.90930083  0.34412189  0.36255487  1
  H  H1339  1  0.97806901  0.34745774  0.41777163  1
  C  C1340  1  0.70671450  0.35126031  0.34229700  1
  O  O1341  1  0.96215928  0.32354104  0.47151170  1
  Cu  Cu1342  1  0.97207375  0.36967718  0.34688642  1
  H  H1343  1  0.81253907  0.34409827  0.49852515  1
  C  C1344  1  0.69396875  0.30965786  0.35889501  1
  C  C1345  1  0.79883973  0.29506367  0.36735034  1
  C  C1346  1  0.76274612  0.36925740  0.34090179  1
  C  C1347  1  0.94084952  0.27191380  0.28904570  1
  C  C1348  1  0.80711811  0.34092745  0.35390272  1
  O  O1349  1  0.70834134  0.46690763  0.37826447  1
  N  N1350  1  0.86403692  0.37721541  0.44185998  1
  C  C1351  1  0.52638773  0.35955081  0.45546455  1
  C  C1352  1  0.92612608  0.26416311  0.25330481  1
  H  H1353  1  0.90778807  0.28079088  0.31016293  1
  H  H1354  1  0.79242966  0.42970208  0.40138218  1
  O  O1355  1  0.55260611  0.38121566  0.43380664  1
  C  C1356  1  0.72887641  0.37349463  0.48589217  1
  O  O1357  1  0.86355869  0.40732955  0.34619884  1
  C  C1358  1  0.54976535  0.31299290  0.46748470  1
  O  O1359  1  0.93084088  0.38590674  0.28603100  1
  Cu  Cu1360  1  0.89949110  0.44048931  0.30710572  1
  O  O1361  1  0.67726651  0.42706235  0.31834905  1
  O  O1362  1  0.61302081  0.37482089  0.32936251  1
  O  O1363  1  0.61006149  0.49776748  0.29618041  1
  C  C1364  1  0.77447263  0.41443398  0.42457267  1
  H  H1365  1  0.65185007  0.29280181  0.36298259  1
  H  H1366  1  0.54518461  0.44506056  0.40879736  1
  H  H1367  1  0.83344612  0.27262974  0.37504274  1
  Cu  Cu1368  1  0.65953495  0.48636962  0.33711111  1
  C  C1369  1  0.74151967  0.28070624  0.36960107  1
  C  C1370  1  0.78487532  0.36373429  0.47909432  1
  H  H1371  1  0.96492061  0.49509108  0.48922765  1
  N  N1372  1  0.74262869  0.31679620  0.25157042  1
  H  H1373  1  0.65871145  0.19103536  0.65420857  1
  C  C1374  1  0.58478529  0.14586819  0.66247482  1
  C  C1375  1  0.61371575  0.18364487  0.64706984  1
  N  N1376  1  0.61224849  0.11578865  0.68732568  1
  H  H1377  1  0.65481718  0.12209973  0.69198504  1
  H  H1378  1  0.59961075  0.08298931  0.69207977  1
  C  C1379  1  0.58563379  0.21491345  0.62383634  1
  C  C1380  1  0.73898762  0.11155017  0.65655044  1
  H  H1381  1  0.79317152  0.15576371  0.61695840  1
  C  C1382  1  0.79989451  0.19041617  0.63041938  1
  O  O1383  1  0.73793347  0.10818560  0.62521483  1
  C  C1384  1  0.77947662  0.19028188  0.66510912  1
  N  N1385  1  0.75902826  0.14729927  0.67926667  1
  N  N1386  1  0.71852411  0.22758271  0.55095435  1
  C  C1387  1  0.68602595  0.18956196  0.54913540  1
  H  H1388  1  0.65603327  0.19341898  0.57237411  1
  C  C1389  1  0.89535549  0.10321999  0.68134726  1
  H  H1390  1  0.75180345  0.07544059  0.57841220  1
  C  C1391  1  0.76326600  0.22070806  0.53067227  1
  H  H1392  1  0.80763861  0.11825793  0.53321590  1
  O  O1393  1  0.87708450  0.10482269  0.71034674  1
  C  C1394  1  0.72643298  0.06605564  0.67639626  1
  H  H1395  1  0.76015025  0.14047644  0.70535905  1
  C  C1396  1  0.87759110  0.08559235  0.61477698  1
  H  H1397  1  0.83329595  0.07262666  0.61966357  1
  C  C1398  1  0.91592765  0.09940234  0.64469233  1
  C  C1399  1  0.90159826  0.08284311  0.58216227  1
  C  C1400  1  0.69824803  0.03177982  0.65627694  1
  C  C1401  1  0.73491783  0.06239828  0.71334300  1
  H  H1402  1  0.68978129  0.03835901  0.62737325  1
  H  H1403  1  0.87370681  0.06921116  0.56077513  1
  H  H1404  1  0.76087575  0.08744908  0.73194108  1
  H  H1405  1  0.62671997  0.22388433  0.70976395  1
  O  O1406  1  0.60413750  0.11606553  0.55040694  1
  C  C1407  1  0.64394452  0.11507962  0.52855409  1
  C  C1408  1  0.68887686  0.14981959  0.52580849  1
  C  C1409  1  0.96167078  0.09524980  0.57546752  1
  H  H1410  1  0.83989474  0.18851498  0.56211702  1
  C  C1411  1  0.98498453  0.09297720  0.54165834  1
  H  H1412  1  0.96008022  0.08225760  0.51712810  1
  C  C1413  1  0.52843611  0.21108164  0.61634013  1
  C  C1414  1  0.83080391  0.22595832  0.61394488  1
  C  C1415  1  0.52625429  0.14115207  0.65559635  1
  H  H1416  1  0.95738277  0.21612762  0.57440121  1
  C  C1417  1  0.79650167  0.04459981  0.52922673  1
  N  N1418  1  0.71626339  0.02344393  0.72964234  1
  O  O1419  1  0.52288109  0.18455124  0.54419816  1
  C  C1420  1  0.76361726  0.04305299  0.56186469  1
  C  C1421  1  0.81469586  0.08794173  0.51688766  1
  H  H1422  1  0.61545671  0.19920272  0.51071164  1
  C  C1423  1  0.77547233  0.18205323  0.50727820  1
  C  C1424  1  0.97392812  0.10783095  0.63809653  1
  H  H1425  1  0.93959332  0.19417596  0.50871734  1
  C  C1426  1  0.98596121  0.19925380  0.50505317  1
  C  C1427  1  0.78719639  0.23260239  0.68648438  1
  H  H1428  1  0.76880955  0.23545930  0.71321683  1
  C  C1429  1  0.53873286  0.24412161  0.50490623  1
  C  C1430  1  0.61772208  0.22993513  0.73823281  1
  H  H1431  1  0.50791183  0.03637552  0.68750902  1
  C  C1432  1  0.50135782  0.17171397  0.63169857  1
  Cu  Cu1433  1  0.51998998  0.11610301  0.54016292  1
  H  H1434  1  0.50985648  0.23585451  0.59748801  1
  C  C1435  1  0.85224722  0.22053470  0.57711501  1
  C  C1436  1  0.51534164  0.02104421  0.63046325  1
  H  H1437  1  0.56009836  0.03352427  0.63033470  1
  C  C1438  1  0.99918678  0.11021844  0.60500492  1
  H  H1439  1  0.50180876  0.11172030  0.66867668  1
  C  C1440  1  0.52671340  0.00234130  0.56651507  1
  O  O1441  1  0.55462099  0.00154648  0.54109774  1
  O  O1442  1  0.99013095  0.24115673  0.65716508  1
  C  C1443  1  0.74628872  0.00012505  0.57429743  1
  H  H1444  1  0.64238143  0.04799448  0.50331661  1
  N  N1445  1  0.65654538  0.08210804  0.50168443  1
  C  C1446  1  0.73538281  0.14575572  0.50247285  1
  H  H1447  1  0.79180287  0.25238680  0.53331492  1
  C  C1448  1  0.56661260  0.25114736  0.74798984  1
  Cu  Cu1449  1  0.61383092  0.32248476  0.55480338  1
  C  C1450  1  0.61682308  0.25372559  0.60773628  1
  O  O1451  1  0.66927942  0.25677089  0.61038092  1
  C  C1452  1  0.75334261  0.49680000  0.70745465  1
  C  C1453  1  0.70134414  0.30897004  0.73756495  1
  H  H1454  1  0.55046041  0.44347302  0.71370924  1
  C  C1455  1  0.51372788  0.49791470  0.67919059  1
  Cu  Cu1456  1  0.62589588  0.35966811  0.64781902  1
  C  C1457  1  0.60210997  0.45962120  0.66627822  1
  C  C1458  1  0.69338839  0.48689749  0.50566259  1
  O  O1459  1  0.65158423  0.35410962  0.52098741  1
  H  H1460  1  0.82045879  0.30248320  0.68768963  1
  C  C1461  1  0.79200063  0.41477363  0.72260492  1
  C  C1462  1  0.74755411  0.40995814  0.74834974  1
  C  C1463  1  0.73270970  0.46866513  0.53236034  1
  H  H1464  1  0.83148872  0.34541890  0.73089102  1
  C  C1465  1  0.88531467  0.25568776  0.56109812  1
  C  C1466  1  0.53755187  0.38525364  0.59262812  1
  C  C1467  1  0.75245749  0.42258199  0.58412934  1
  H  H1468  1  0.99263712  0.31754693  0.61909873  1
  C  C1469  1  0.60462237  0.48588165  0.63386989  1
  C  C1470  1  0.92277950  0.44833831  0.64667741  1
  C  C1471  1  0.81553669  0.26988260  0.67066170  1
  O  O1472  1  0.56368640  0.37544920  0.56484924  1
  C  C1473  1  0.84231616  0.26866955  0.63610261  1
  N  N1474  1  0.88617095  0.46491014  0.55587685  1
  C  C1475  1  0.86701343  0.30745691  0.61807099  1
  C  C1476  1  0.87708591  0.43264498  0.67082460  1
  O  O1477  1  0.56352472  0.38968815  0.62321613  1
  O  O1478  1  0.95021876  0.37235173  0.56195095  1
  C  C1479  1  0.83228414  0.37827736  0.71524232  1
  O  O1480  1  0.95931719  0.46197445  0.62812705  1
  C  C1481  1  0.79700664  0.46126722  0.70297436  1
  C  C1482  1  0.79133061  0.48035502  0.52930986  1
  H  H1483  1  0.96802069  0.36866933  0.62628695  1
  H  H1484  1  0.53722212  0.26870833  0.72797783  1
  H  H1485  1  0.91209612  0.44958530  0.57405198  1
  C  C1486  1  0.87297516  0.38815801  0.68917845  1
  H  H1487  1  0.64175203  0.48485579  0.61494433  1
  H  H1488  1  0.83678118  0.41793653  0.60379949  1
  C  C1489  1  0.82782594  0.46090007  0.55442686  1
  O  O1490  1  0.76666261  0.36864913  0.63042539  1
  O  O1491  1  0.73614941  0.32033783  0.53359431  1
  H  H1492  1  0.90508248  0.35964811  0.68366881  1
  H  H1493  1  0.89604746  0.25487400  0.53278266  1
  C  C1494  1  0.55632024  0.46357300  0.68879057  1
  C  C1495  1  0.89176217  0.29925277  0.58292914  1
  Cu  Cu1496  1  0.70968773  0.29120654  0.57579898  1
  C  C1497  1  0.80990593  0.42746483  0.58144452  1
  C  C1498  1  0.83966697  0.47305456  0.67958208  1
  H  H1499  1  0.87199550  0.34367005  0.62904448  1
  H  H1500  1  0.68465503  0.43493144  0.66328455  1
  O  O1501  1  0.67852694  0.37666941  0.61381097  1
  C  C1502  1  0.92385650  0.33955333  0.57131155  1
  O  O1503  1  0.58704282  0.28248366  0.58970995  1
  C  C1504  1  0.70441759  0.34905749  0.51644193  1
  H  H1505  1  0.65521879  0.42735393  0.70042845  1
  O  O1506  1  0.64153650  0.47976267  0.51078375  1
  N  N1507  1  0.64631228  0.42479462  0.67344612  1
  H  H1508  1  0.66505341  0.43534554  0.56209741  1
  O  O1509  1  0.70768003  0.30903492  0.70691875  1
  C  C1510  1  0.71230256  0.44132220  0.56107921  1
  O  O1511  1  0.58133588  0.37406665  0.72543271  1
  C  C1512  1  0.73311221  0.38671893  0.61185046  1
  C  C1513  1  0.55441772  0.34883377  0.70513167  1
  O  O1514  1  0.57840421  0.32791931  0.67842431  1
  C  C1515  1  0.71035600  0.48878570  0.73111545  1
  H  H1516  1  0.90515822  0.49262184  0.54217112  1
  C  C1517  1  0.73600704  0.06325486  0.90880152  1
  C  C1518  1  0.61475894  0.14691753  0.96730846  1
  C  C1519  1  0.63243649  0.20723031  0.80243623  1
  H  H1520  1  0.66294957  0.19157370  0.82258916  1
  C  C1521  1  0.69532180  0.08968363  0.92876860  1
  C  C1522  1  0.62423778  0.06145133  0.83753911  1
  C  C1523  1  0.61564750  0.14324367  0.92887048  1
  C  C1524  1  0.61131739  0.09690381  0.81024698  1
  H  H1525  1  0.65283215  0.11565125  0.88066520  1
  C  C1526  1  0.65487323  0.11570369  0.91027253  1
  H  H1527  1  0.90299003  0.17956752  0.89198643  1
  H  H1528  1  0.74087417  0.15291790  0.92177934  1
  H  H1529  1  0.77847133  0.13334906  0.86466940  1
  H  H1530  1  0.83441578  0.15587791  0.80953370  1
  C  C1531  1  0.79741593  0.16853963  0.86148155  1
  C  C1532  1  0.82517829  0.18018227  0.83056177  1
  C  C1533  1  0.88092673  0.12010785  0.94870011  1
  H  H1534  1  0.84608880  0.12187615  0.92926885  1
  C  C1535  1  0.93634342  0.17721274  0.91210180  1
  C  C1536  1  0.93085969  0.15116929  0.94388337  1
  C  C1537  1  0.76256399  0.18738369  0.91907768  1
  H  H1538  1  0.73882085  0.06333841  0.87955663  1
  C  C1539  1  0.55685218  0.11539221  0.81117171  1
  C  C1540  1  0.69478016  0.09013680  0.96830661  1
  C  C1541  1  0.76728399  0.03029438  0.96769666  1
  N  N1542  1  0.57336715  0.02582674  0.97618628  1
  C  C1543  1  0.58463492  0.04908173  0.86596058  1
  H  H1544  1  0.58228960  0.17206280  0.98061917  1
  C  C1545  1  0.65194488  0.11929205  0.98620807  1
  C  C1546  1  0.76745701  0.03409482  0.92910832  1
  C  C1547  1  0.53128321  0.07089044  0.86836928  1
  C  C1548  1  0.58340210  0.23213388  0.81389094  1
  C  C1549  1  0.79475334  0.20228278  0.89137918  1
  H  H1550  1  0.55913644  0.04339139  0.95410667  1
  H  H1551  1  0.60597771  0.24397648  0.93240909  1
  N  N1552  1  0.57519156  0.16963370  0.90768522  1
  H  H1553  1  0.59903709  0.02046081  0.88553524  1
  H  H1554  1  0.57393582  0.15267503  0.88422016  1
  C  C1555  1  0.51565763  0.10394321  0.84075890  1
  H  H1556  1  0.61558974  0.02907344  0.97622637  1
  O  O1557  1  0.71946697  0.01579096  0.82716537  1
  C  C1558  1  0.53725949  0.14333625  0.78074008  1
  H  H1559  1  0.59877148  0.22828620  0.87214720  1
  C  C1560  1  0.51876164  0.22150560  0.94594915  1
  C  C1561  1  0.85373516  0.22650387  0.82763840  1
  C  C1562  1  0.64861859  0.20315798  0.76619412  1
  C  C1563  1  0.56740168  0.23769057  0.85132374  1
  C  C1564  1  0.67632286  0.03622985  0.83052717  1
  C  C1565  1  0.52051157  0.17752517  0.92410955  1
  H  H1566  1  0.64120707  0.10832805  0.78975353  1
  C  C1567  1  0.75600984  0.22138695  0.94794779  1
  C  C1568  1  0.87875260  0.09538281  0.98034078  1
  N  N1569  1  0.72388551  0.19880313  0.97548991  1
  H  H1570  1  0.84116221  0.07380279  0.98757124  1
  H  H1571  1  0.50243040  0.06412152  0.89090626  1
  C  C1572  1  0.72947754  0.05896043  0.98850278  1
  H  H1573  1  0.73983161  0.17000957  0.98788976  1
  O  O1574  1  0.87031052  0.21127046  0.99020514  1
  C  C1575  1  0.97958135  0.15232857  0.97080733  1
  C  C1576  1  0.69742540  0.17031640  0.76098742  1
  C  C1577  1  0.87513197  0.24483173  0.79389508  1
  H  H1578  1  0.79442766  0.00828261  0.91565855  1
  C  C1579  1  0.98788503  0.20408994  0.90636149  1
  C  C1580  1  0.99250600  0.22729322  0.87231153  1
  O  O1581  1  0.99612061  0.24352295  0.84383474  1
  H  H1582  1  0.56720427  0.15023693  0.75904506  1
  O  O1583  1  0.73843220  0.14644832  0.76015593  1
  C  C1584  1  0.56505719  0.25188965  0.94594186  1
  H  H1585  1  0.76141753  0.25329247  0.84759139  1
  C  C1586  1  0.82083874  0.25051132  0.88971739  1
  C  C1587  1  0.54834043  0.25435754  0.78488767  1
  H  H1588  1  0.76906757  0.26139148  0.78234565  1
  H  H1589  1  0.72014859  0.28000067  0.90487269  1
  C  C1590  1  0.85332625  0.25756451  0.85860746  1
  O  O1591  1  0.83511379  0.49491748  0.95674860  1
  O  O1592  1  0.89376382  0.25485783  0.76602838  1
  C  C1593  1  0.93333818  0.38272071  0.98505057  1
  C  C1594  1  0.51206698  0.25292675  0.85771081  1
  C  C1595  1  0.73150900  0.27455958  0.83267984  1
  H  H1596  1  0.80386722  0.46079573  0.79818610  1
  C  C1597  1  0.68833911  0.30081068  0.89013994  1
  C  C1598  1  0.78235718  0.26659530  0.94984244  1
  C  C1599  1  0.81091306  0.28318056  0.91915235  1
  H  H1600  1  0.87973849  0.28925947  0.85695835  1
  H  H1601  1  0.56293973  0.35710389  0.90713336  1
  N  N1602  1  0.89778980  0.40423155  0.80420424  1
  H  H1603  1  0.91638763  0.27702999  0.94409657  1
  H  H1604  1  0.61052515  0.34422482  0.77889488  1
  C  C1605  1  0.64436035  0.32316469  0.90946865  1
  O  O1606  1  0.80970966  0.36550574  0.79949118  1
  C  C1607  1  0.64332426  0.32746357  0.79414004  1
  H  H1608  1  0.50089508  0.45088697  0.91708146  1
  C  C1609  1  0.50358582  0.29904429  0.98346406  1
  H  H1610  1  0.67042734  0.29778796  0.96187994  1
  H  H1611  1  0.51803512  0.44189301  0.99843477  1
  C  C1612  1  0.59341910  0.33631044  0.96608058  1
  C  C1613  1  0.64440780  0.32525342  0.83119734  1
  O  O1614  1  0.93588642  0.33495868  0.89527137  1
  N  N1615  1  0.64613148  0.32230844  0.94723097  1
  C  C1616  1  0.94922652  0.47776155  0.79102058  1
  C  C1617  1  0.70173155  0.48517205  0.81983235  1
  C  C1618  1  0.86068094  0.49087598  0.92934507  1
  N  N1619  1  0.65166403  0.43925863  0.76930886  1
  C  C1620  1  0.84303803  0.38867273  0.81529304  1
  N  N1621  1  0.75978662  0.39845335  0.89653726  1
  H  H1622  1  0.83492402  0.31818260  0.91771240  1
  C  C1623  1  0.55613165  0.29364537  0.96476310  1
  O  O1624  1  0.57942319  0.49446189  0.75808979  1
  H  H1625  1  0.63214427  0.41250670  0.75526609  1
  C  C1626  1  0.82914931  0.40769908  0.85225792  1
  C  C1627  1  0.73511463  0.28070120  0.79732874  1
  H  H1628  1  0.91224738  0.38685163  0.78239592  1
  O  O1629  1  0.58252411  0.37071801  0.98233648  1
  H  H1630  1  0.94093393  0.41972633  0.97798005  1
  C  C1631  1  0.59977774  0.34604996  0.89032776  1
  C  C1632  1  0.91685208  0.30202223  0.96470022  1
  C  C1633  1  0.84150895  0.45271614  0.90256493  1
  H  H1634  1  0.73909557  0.37589557  0.76276016  1
  C  C1635  1  0.93131871  0.34853738  0.95862875  1
  H  H1636  1  0.50896937  0.38420395  0.75877219  1
  H  H1637  1  0.90237743  0.45893485  0.85722382  1
  O  O1638  1  0.95904713  0.40573199  0.91144572  1
  H  H1639  1  0.71000147  0.44682574  0.82299014  1
  C  C1640  1  0.78939414  0.43211058  0.91266572  1
  H  H1641  1  0.56253066  0.35894651  0.84053259  1
  H  H1642  1  0.78410842  0.28811410  0.97436541  1
  C  C1643  1  0.77840695  0.38669548  0.86415336  1
  C  C1644  1  0.84437348  0.47806703  0.79024074  1
  H  H1645  1  0.98949607  0.46007467  0.79720526  1
  C  C1646  1  0.69158551  0.30580216  0.77616466  1
  C  C1647  1  0.89505348  0.45549379  0.79568691  1
  C  C1648  1  0.69083590  0.30151386  0.85374292  1
  C  C1649  1  0.59832928  0.34261017  0.85334141  1
  C  C1650  1  0.86348171  0.44108966  0.86963069  1
  H  H1651  1  0.75006403  0.36256201  0.85098990  1
  C  C1652  1  0.62307472  0.48120218  0.77411124  1
  H  H1653  1  0.76662480  0.43717348  0.93692789  1
  C  C1654  1  0.94174921  0.36623036  0.91840751  1
  C  C1655  1  0.70573489  0.44564154  0.75023463  1
  C  C1656  1  0.60468201  0.67356963  0.10318185  1
  C  C1657  1  0.56344992  0.64620697  0.11953341  1
  C  C1658  1  0.57986126  0.69332339  0.17337625  1
  O  O1659  1  0.90525693  0.72923028  0.11120447  1
  O  O1660  1  0.94734707  0.68551723  0.17020718  1
  C  C1661  1  0.94835374  0.62571174  0.21477743  1
  N  N1662  1  0.62273805  0.71106977  0.04873933  1
  C  C1663  1  0.96018506  0.64342380  0.17874414  1
  H  H1664  1  0.89083421  0.74123299  0.18651116  1
  C  C1665  1  0.95251933  0.57872109  0.22464367  1
  N  N1666  1  0.62207351  0.71479413  0.15783916  1
  C  C1667  1  0.63179880  0.70987643  0.12437978  1
  H  H1668  1  0.57539431  0.70008967  0.20149392  1
  H  H1669  1  0.88383719  0.56777513  0.06972082  1
  C  C1670  1  0.61555499  0.66578863  0.06286802  1
  C  C1671  1  0.94963977  0.53558309  0.02332260  1
  O  O1672  1  0.61002878  0.62847550  0.04999146  1
  C  C1673  1  0.87204458  0.59863965  0.05263352  1
  H  H1674  1  0.53946723  0.61899006  0.10616054  1
  C  C1675  1  0.54780779  0.65867936  0.15499280  1
  C  C1676  1  0.85496906  0.63981775  0.06844249  1
  H  H1677  1  0.85598639  0.64457189  0.09749005  1
  C  C1678  1  0.83099916  0.67655074  0.04750488  1
  Cu  Cu1679  1  0.97526580  0.71898626  0.12803986  1
  H  H1680  1  0.92775897  0.69747944  0.23398055  1
  C  C1681  1  0.93185654  0.65875235  0.24082354  1
  C  C1682  1  0.80640621  0.71695118  0.06263422  1
  H  H1683  1  0.80667667  0.72451944  0.09106829  1
  H  H1684  1  0.96625319  0.54975173  0.20633824  1
  C  C1685  1  0.98629533  0.57243589  0.03980821  1
  O  O1686  1  0.97352416  0.61181912  0.15681203  1
  C  C1687  1  0.87886351  0.59766847  0.01486284  1
  H  H1688  1  0.66270513  0.73548784  0.11884794  1
  C  C1689  1  0.99150516  0.61597868  0.02340228  1
  H  H1690  1  0.52573405  0.59678688  0.04701567  1
  C  C1691  1  0.50513807  0.63617053  0.17781054  1
  H  H1692  1  0.94257774  0.71852442  0.03984505  1
  H  H1693  1  0.51370167  0.56237611  0.21373486  1
  C  C1694  1  0.77270673  0.74817539  0.03953919  1
  H  H1695  1  0.62474493  0.73763519  0.06719684  1
  H  H1696  1  0.52339160  0.52381920  0.01461737  1
  C  C1697  1  0.83449157  0.67576894  0.00714045  1
  C  C1698  1  0.94328389  0.74354161  0.01643511  1
  C  C1699  1  0.63023261  0.72048304  0.01302093  1
  H  H1700  1  0.69462230  0.57043957  0.00890241  1
  C  C1701  1  0.61545422  0.50277091  0.02139470  1
  C  C1702  1  0.80872431  0.74981372  0.24029073  1
  O  O1703  1  0.57880281  0.50491765  0.17409055  1
  C  C1704  1  0.77636755  0.74498640  0.00118570  1
  N  N1705  1  0.91093643  0.55827963  0.00067809  1
  C  C1706  1  0.99713572  0.92449230  0.22742800  1
  C  C1707  1  0.69111906  0.91548627  0.23872854  1
  H  H1708  1  0.60650965  0.98648267  0.03879729  1
  C  C1709  1  0.56283242  0.99442478  0.03668501  1
  C  C1710  1  0.84805326  0.75978097  0.17961296  1
  C  C1711  1  0.80185605  0.93610906  0.20588552  1
  C  C1712  1  0.54647496  0.83899457  0.18641229  1
  C  C1713  1  0.54832228  0.97136069  0.10102423  1
  C  C1714  1  0.73312987  0.78289706  0.05486675  1
  C  C1715  1  0.96037455  0.89325377  0.24788008  1
  C  C1716  1  0.90211584  0.77992697  0.01369697  1
  C  C1717  1  0.93999159  0.90218207  0.17617148  1
  O  O1718  1  0.59801946  0.96331325  0.10435690  1
  H  H1719  1  0.87054442  0.78410612  0.03458329  1
  C  C1720  1  0.87683472  0.76813133  0.11275094  1
  C  C1721  1  0.50976346  0.76966537  0.06928267  1
  C  C1722  1  0.74286856  0.80686326  0.15917253  1
  Cu  Cu1723  1  0.51488637  0.92280582  0.15791318  1
  C  C1724  1  0.92980624  0.91314192  0.13801290  1
  H  H1725  1  0.68465882  0.82830993  0.11913876  1
  H  H1726  1  0.54510422  0.84027280  0.11582922  1
  C  C1727  1  0.75203851  0.92345855  0.18661719  1
  C  C1728  1  0.80298625  0.76855136  0.20267740  1
  C  C1729  1  0.75208872  0.79341168  0.19508591  1
  O  O1730  1  0.56448521  0.87785335  0.17088842  1
  O  O1731  1  0.51119290  0.97012423  0.12651459  1
  C  C1732  1  0.83728458  0.77511715  0.14474906  1
  H  H1733  1  0.65944672  0.79270792  0.02249331  1
  C  C1734  1  0.69598465  0.90902968  0.20229745  1
  C  C1735  1  0.52574523  0.98945343  0.06544059  1
  N  N1736  1  0.68984568  0.81681930  0.14575642  1
  H  H1737  1  0.66170678  0.89543892  0.18655254  1
  O  O1738  1  0.55866627  0.82601984  0.21480431  1
  O  O1739  1  0.58212033  0.89698402  0.02623776  1
  O  O1740  1  0.54640614  0.79703242  0.05582740  1
  C  C1741  1  0.91032846  0.86866208  0.23177812  1
  O  O1742  1  0.87262435  0.79411759  0.08765635  1
  H  H1743  1  0.71927722  0.79994033  0.21495830  1
  H  H1744  1  0.65137098  0.82352779  0.15760206  1
  H  H1745  1  0.78238104  0.81063531  0.10827519  1
  C  C1746  1  0.90162920  0.87212809  0.19466718  1
  C  C1747  1  0.52067970  0.80983403  0.12695346  1
  O  O1748  1  0.92119161  0.91892805  0.10803674  1
  O  O1749  1  0.70459901  0.81107854  0.07022025  1
  O  O1750  1  0.75543796  0.93600407  0.11806554  1
  O  O1751  1  0.55376272  0.96441845  0.22425471  1
  C  C1752  1  0.98654616  0.92983275  0.19184987  1
  H  H1753  1  0.84247331  0.94720695  0.19368726  1
  C  C1754  1  0.74945928  0.93071506  0.14874682  1
  Cu  Cu1755  1  0.52820768  0.84959521  0.02856032  1
  C  C1756  1  0.78922461  0.79833251  0.13447249  1
  H  H1757  1  0.86472285  0.85328117  0.18063644  1
  H  H1758  1  0.82952569  0.83168055  0.24314002  1
  C  C1759  1  0.51556670  0.80362518  0.16232119  1
  C  C1760  1  0.80002353  0.93882316  0.24368132  1
  H  H1761  1  0.88916547  0.96630486  0.24886270  1
  O  O1762  1  0.66998248  0.90554134  0.01000230  1
  C  C1763  1  0.65087462  0.76585007  0.00147247  1
  C  C1764  1  0.62110201  0.90627389  0.00190912  1
  O  O1765  1  0.83460178  0.96931859  0.00149740  1
  C  C1766  1  0.62398890  0.69247695  0.28158002  1
  C  C1767  1  0.63935679  0.63706867  0.33257554  1
  C  C1768  1  0.61119637  0.69273897  0.45601951  1
  H  H1769  1  0.64662924  0.68197774  0.43772538  1
  C  C1770  1  0.63949020  0.68317933  0.31995173  1
  C  C1771  1  0.65920884  0.72052415  0.33898734  1
  C  C1772  1  0.66811472  0.62836656  0.36438288  1
  C  C1773  1  0.69424507  0.66536236  0.38390552  1
  H  H1774  1  0.71850409  0.65944423  0.40853999  1
  C  C1775  1  0.68807009  0.71216860  0.37181409  1
  C  C1776  1  0.84995099  0.73693408  0.36012198  1
  C  C1777  1  0.83420865  0.68610973  0.36516591  1
  H  H1778  1  0.80289280  0.68405537  0.31006935  1
  C  C1779  1  0.80842032  0.66476244  0.33435752  1
  H  H1780  1  0.54024592  0.56699870  0.42127839  1
  H  H1781  1  0.85929157  0.68690998  0.42008630  1
  C  C1782  1  0.91718571  0.59875329  0.28611060  1
  O  O1783  1  0.68552331  0.57026078  0.40934825  1
  H  H1784  1  0.61756166  0.60907254  0.31875221  1
  C  C1785  1  0.84269284  0.66618364  0.39806772  1
  C  C1786  1  0.66499864  0.57929345  0.37911073  1
  C  C1787  1  0.79355239  0.61842084  0.33780659  1
  N  N1788  1  0.92056602  0.68464582  0.30064094  1
  C  C1789  1  0.91755456  0.64569134  0.27588628  1
  H  H1790  1  0.90386989  0.67987444  0.32564043  1
  C  C1791  1  0.80406399  0.59496258  0.36980750  1
  C  C1792  1  0.82823553  0.61624972  0.40048961  1
  H  H1793  1  0.90348355  0.58440611  0.31197421  1
  O  O1794  1  0.65043920  0.59428911  0.47009654  1
  C  C1795  1  0.58485452  0.66046931  0.47883060  1
  H  H1796  1  0.96190067  0.69010809  0.30804640  1
  C  C1797  1  0.58527394  0.73703069  0.45184421  1
  H  H1798  1  0.75121969  0.74625203  0.40417273  1
  C  C1799  1  0.60788666  0.61283639  0.48610440  1
  N  N1800  1  0.83229330  0.59404964  0.43355556  1
  H  H1801  1  0.86295521  0.60260080  0.45074052  1
  C  C1802  1  0.76390884  0.58862393  0.30879540  1
  O  O1803  1  0.94509686  0.54304167  0.38844672  1
  O  O1804  1  0.74858376  0.61180217  0.28093154  1
  O  O1805  1  0.75075610  0.54819909  0.31266839  1
  H  H1806  1  0.79147542  0.55704038  0.37265807  1
  H  H1807  1  0.82463498  0.55799349  0.43852825  1
  Cu  Cu1808  1  0.65237398  0.53846778  0.44644586  1
  C  C1809  1  0.53288021  0.54723422  0.28711149  1
  O  O1810  1  0.64262031  0.54818756  0.36104463  1
  C  C1811  1  0.50769147  0.58872896  0.27427869  1
  C  C1812  1  0.98335351  0.53112279  0.48207298  1
  O  O1813  1  0.62224427  0.55938615  0.25938815  1
  Cu  Cu1814  1  0.67515343  0.60928912  0.26356148  1
  C  C1815  1  0.97909513  0.55242131  0.44920680  1
  C  C1816  1  0.59112189  0.53550641  0.28068686  1
  H  H1817  1  0.56381956  0.63630940  0.38303710  1
  O  O1818  1  0.61937942  0.73203142  0.27127753  1
  C  C1819  1  0.93366588  0.51634424  0.26718044  1
  C  C1820  1  0.94303808  0.52889237  0.42074370  1
  C  C1821  1  0.93365834  0.56804298  0.25903645  1
  N  N1822  1  0.52608123  0.65275728  0.39218901  1
  O  O1823  1  0.85713069  0.73394473  0.25230659  1
  C  C1824  1  0.51705892  0.71838594  0.49578869  1
  O  O1825  1  0.70834573  0.51580680  0.48146056  1
  O  O1826  1  0.53571269  0.51195885  0.48308811  1
  C  C1827  1  0.50722622  0.58784368  0.43494078  1
  O  O1828  1  0.91854885  0.50239205  0.29778864  1
  O  O1829  1  0.61529483  0.65367799  0.26270146  1
  C  C1830  1  0.84090631  0.74208469  0.49606330  1
  H  H1831  1  0.52489818  0.68771085  0.38374403  1
  H  H1832  1  0.88514284  0.72560555  0.49703625  1
  H  H1833  1  0.53292907  0.61562027  0.26067034  1
  C  C1834  1  0.53843805  0.67254469  0.49953184  1
  N  N1835  1  0.71508717  0.75009133  0.38831042  1
  H  H1836  1  0.65851331  0.75784529  0.32867344  1
  C  C1837  1  0.99194969  0.84892881  0.35546336  1
  O  O1838  1  0.84640361  0.75279660  0.32747481  1
  C  C1839  1  0.98121617  0.96861456  0.49977142  1
  C  C1840  1  0.86899235  0.84686673  0.25454978  1
  H  H1841  1  0.50118395  0.99168064  0.36530942  1
  C  C1842  1  0.79183056  0.94465203  0.31588834  1
  C  C1843  1  0.53837806  0.75272324  0.47219087  1
  H  H1844  1  0.57975252  0.79470418  0.41833553  1
  C  C1845  1  0.84884323  0.95769197  0.26219337  1
  C  C1846  1  0.64744339  0.84460768  0.34033395  1
  O  O1847  1  0.86734726  0.75982545  0.38456395  1
  H  H1848  1  0.98691227  0.97862820  0.35949237  1
  O  O1849  1  0.58872318  0.95077984  0.44593454  1
  H  H1850  1  0.63906533  0.76034863  0.40801726  1
  Cu  Cu1851  1  0.90375315  0.75560890  0.29271848  1
  H  H1852  1  0.82119279  0.97803785  0.45354658  1
  C  C1853  1  0.84139486  0.96314197  0.29823190  1
  H  H1854  1  0.65161951  0.90591381  0.25450588  1
  O  O1855  1  0.66693500  0.82567721  0.36652024  1
  C  C1856  1  0.95290964  0.81582316  0.41486398  1
  H  H1857  1  0.99833054  0.80153913  0.49012360  1
  N  N1858  1  0.78832399  0.94676742  0.35393925  1
  N  N1859  1  0.60726864  0.76718267  0.42614198  1
  H  H1860  1  0.84431611  0.83128913  0.31159720  1
  H  H1861  1  0.68442167  0.80001120  0.48035819  1
  H  H1862  1  0.52210982  0.78771236  0.46895768  1
  C  C1863  1  0.74332725  0.92458862  0.25880800  1
  O  O1864  1  0.76961217  0.75759852  0.25958824  1
  C  C1865  1  0.84476567  0.94979856  0.36736981  1
  C  C1866  1  0.60188286  0.90521621  0.38044520  1
  C  C1867  1  0.72600320  0.78306539  0.48459551  1
  C  C1868  1  0.53968232  0.94426126  0.32469066  1
  O  O1869  1  0.87487781  0.91668113  0.37676271  1
  C  C1870  1  0.76644046  0.85201413  0.45693191  1
  O  O1871  1  0.96921329  0.76222934  0.26484686  1
  H  H1872  1  0.93456890  0.99257464  0.40794136  1
  C  C1873  1  0.93089925  0.86042786  0.30522928  1
  H  H1874  1  0.76837057  0.91805748  0.36479103  1
  O  O1875  1  0.96174707  0.98236434  0.47253925  1
  H  H1876  1  0.70865164  0.78425707  0.37902394  1
  C  C1877  1  0.87904109  0.84376912  0.29183615  1
  H  H1878  1  0.52744199  0.96274089  0.26863326  1
  C  C1879  1  0.53011296  0.96294252  0.35964803  1
  H  H1880  1  0.90595561  0.80974748  0.40796791  1
  H  H1881  1  0.70962579  0.90851713  0.31237388  1
  N  N1882  1  0.93769618  0.85439415  0.34380585  1
  N  N1883  1  0.51637060  0.96831835  0.29609686  1
  H  H1884  1  0.62889221  0.89190593  0.40316471  1
  C  C1885  1  0.57095935  0.90233845  0.31947326  1
  C  C1886  1  0.56259894  0.96975814  0.42261562  1
  H  H1887  1  0.87450318  0.80275204  0.46773916  1
  C  C1888  1  0.83522503  0.78416269  0.47813652  1
  H  H1889  1  0.87079965  0.91087882  0.49932848  1
  C  C1890  1  0.60312215  0.88587353  0.34709257  1
  C  C1891  1  0.56479166  0.94383711  0.38524425  1
  O  O1892  1  0.64634655  0.82810597  0.31051957  1
  C  C1893  1  0.77876010  0.80517839  0.47242978  1
  H  H1894  1  0.90532357  0.85625436  0.36112426  1
  H  H1895  1  0.87952527  0.97537882  0.31511299  1
  N  N1896  1  0.95536345  0.80370045  0.44815365  1
  C  C1897  1  0.96986109  0.88865008  0.28564728  1
  O  O1898  1  0.75269714  0.88799419  0.44392457  1
  C  C1899  1  0.99874429  0.83258971  0.39260458  1
  H  H1900  1  0.57657030  0.88906947  0.29190344  1
  C  C1901  1  0.74499560  0.92554053  0.29670164  1
  C  C1902  1  0.66021615  0.64284590  0.63116079  1
  N  N1903  1  0.67555705  0.60619280  0.65531042  1
  C  C1904  1  0.72687845  0.60578226  0.67454346  1
  N  N1905  1  0.75557847  0.60126814  0.54457184  1
  C  C1906  1  0.74958685  0.65200666  0.53663939  1
  H  H1907  1  0.72923608  0.60052760  0.59761372  1
  C  C1908  1  0.60190675  0.63780388  0.61835111  1
  C  C1909  1  0.76969573  0.59552197  0.61291147  1
  C  C1910  1  0.77676014  0.59899869  0.64998206  1
  C  C1911  1  0.81250184  0.58583987  0.55117046  1
  C  C1912  1  0.81975869  0.58537606  0.59430221  1
  C  C1913  1  0.83176527  0.59008238  0.66513834  1
  H  H1914  1  0.83894711  0.58131352  0.69308008  1
  C  C1915  1  0.87285270  0.58349033  0.60933569  1
  N  N1916  1  0.87574288  0.58398708  0.64604964  1
  H  H1917  1  0.91338752  0.57538185  0.59511371  1
  H  H1918  1  0.64060174  0.59790655  0.66970904  1
  O  O1919  1  0.73124991  0.60428253  0.70625027  1
  C  C1920  1  0.57922365  0.66980319  0.59531830  1
  C  C1921  1  0.69312301  0.68239798  0.62146587  1
  H  H1922  1  0.73653959  0.68805142  0.63176300  1
  C  C1923  1  0.61015447  0.71188967  0.58668176  1
  O  O1924  1  0.93648798  0.66035159  0.55167111  1
  H  H1925  1  0.57490049  0.60853829  0.62684836  1
  H  H1926  1  0.75084016  0.53098334  0.69124677  1
  H  H1927  1  0.65798865  0.64645179  0.54305489  1
  C  C1928  1  0.69251350  0.67073953  0.53309300  1
  C  C1929  1  0.97660070  0.63938071  0.69951986  1
  H  H1930  1  0.94543907  0.62258053  0.68113268  1
  H  H1931  1  0.87513684  0.67416448  0.63936899  1
  H  H1932  1  0.78676260  0.66828198  0.67230790  1
  H  H1933  1  0.84170326  0.65907704  0.53452338  1
  C  C1934  1  0.79915469  0.67647154  0.52916665  1
  C  C1935  1  0.67015247  0.71891406  0.60095149  1
  C  C1936  1  0.96395046  0.68531158  0.70896389  1
  H  H1937  1  0.58400525  0.70428710  0.69104461  1
  C  C1938  1  0.56448820  0.54080628  0.58981897  1
  C  C1939  1  0.80783597  0.70454060  0.66978880  1
  C  C1940  1  0.85562136  0.70669509  0.64942467  1
  O  O1941  1  0.84649932  0.56762712  0.53258153  1
  H  H1942  1  0.53571672  0.66168655  0.58603850  1
  C  C1943  1  0.55258793  0.71759204  0.67270352  1
  O  O1944  1  0.54055321  0.62313076  0.69317509  1
  H  H1945  1  0.51674360  0.64763073  0.51793689  1
  C  C1946  1  0.97348868  0.68451398  0.53740776  1
  H  H1947  1  0.95347559  0.71941857  0.61027073  1
  H  H1948  1  0.92732017  0.70242658  0.69693096  1
  Cu  Cu1949  1  0.58144460  0.52327216  0.52252589  1
  O  O1950  1  0.60548342  0.53393065  0.56849788  1
  O  O1951  1  0.59237485  0.59216395  0.51392459  1
  O  O1952  1  0.96026635  0.71110318  0.51265933  1
  C  C1953  1  0.50687199  0.69010589  0.66220273  1
  O  O1954  1  0.69400055  0.74339006  0.72583934  1
  H  H1955  1  0.74496088  0.57673727  0.52552893  1
  H  H1956  1  0.84308581  0.50564138  0.66282609  1
  H  H1957  1  0.80494734  0.50124879  0.50665072  1
  H  H1958  1  0.67466401  0.51560433  0.73479167  1
  C  C1959  1  0.79031885  0.71997068  0.51109684  1
  C  C1960  1  0.68290930  0.71282872  0.51482100  1
  H  H1961  1  0.64104076  0.72631726  0.50822280  1
  C  C1962  1  0.73224934  0.74080491  0.50305361  1
  C  C1963  1  0.51323148  0.52127241  0.64657690  1
  C  C1964  1  0.56001862  0.51446831  0.62536857  1
  C  C1965  1  0.58255632  0.74834826  0.56859168  1
  H  H1966  1  0.53800117  0.74260924  0.55950841  1
  O  O1967  1  0.52467156  0.56509974  0.58303012  1
  C  C1968  1  0.50222538  0.63948655  0.67721158  1
  C  C1969  1  0.73481000  0.74265219  0.70787235  1
  C  C1970  1  0.78554559  0.74865503  0.68445243  1
  O  O1971  1  0.84320341  0.96419817  0.73529832  1
  C  C1972  1  0.50171840  0.90110403  0.60807871  1
  C  C1973  1  0.94390368  0.98550792  0.56685424  1
  H  H1974  1  0.97730518  0.98428304  0.69113723  1
  C  C1975  1  0.70024356  0.76125110  0.59392412  1
  H  H1976  1  0.74458333  0.76843716  0.60380124  1
  C  C1977  1  0.94257056  0.83804659  0.63003041  1
  C  C1978  1  0.99396591  0.75763181  0.74111865  1
  O  O1979  1  0.76298018  0.87988474  0.59739072  1
  H  H1980  1  0.51594649  0.81148876  0.61711124  1
  C  C1981  1  0.55383342  0.76382770  0.65748322  1
  C  C1982  1  0.67955610  0.99218390  0.67538318  1
  O  O1983  1  0.58117996  0.86318495  0.52392537  1
  C  C1984  1  0.55667409  0.90816880  0.62186899  1
  C  C1985  1  0.88720408  0.75099248  0.64392424  1
  C  C1986  1  0.67603445  0.79448920  0.57162231  1
  C  C1987  1  0.93582805  0.75063241  0.62344083  1
  C  C1988  1  0.98463694  0.85684611  0.55720751  1
  C  C1989  1  0.69022271  0.98983164  0.71232558  1
  O  O1990  1  0.65582080  0.96377312  0.61976425  1
  C  C1991  1  0.94650070  0.98379518  0.66787743  1
  H  H1992  1  0.53298982  0.89530487  0.71328971  1
  C  C1993  1  0.52246249  0.89932024  0.68638062  1
  C  C1994  1  0.78777493  0.95482027  0.52100896  1
  C  C1995  1  0.91057524  0.89899077  0.51380916  1
  C  C1996  1  0.86236615  0.96798981  0.70651694  1
  C  C1997  1  0.88587520  0.97486999  0.67087420  1
  H  H1998  1  0.59233559  0.91415775  0.60429612  1
  H  H1999  1  0.80175643  0.95771519  0.64742464  1
  C  C2000  1  0.96756151  0.98727304  0.63255331  1
  C  C2001  1  0.86656105  0.97551335  0.60791108  1
  C  C2002  1  0.81213248  0.79471977  0.67899089  1
  N  N2003  1  0.59332579  0.79585965  0.67161768  1
  H  H2004  1  0.67803619  0.96334606  0.73362401  1
  H  H2005  1  0.95617785  0.77735228  0.73278965  1
  H  H2006  1  0.87883928  0.87418863  0.65658266  1
  C  C2007  1  0.51401078  0.77636943  0.63165984  1
  H  H2008  1  0.65232019  0.80871926  0.74304011  1
  C  C2009  1  0.76252736  0.91166272  0.57836953  1
  H  H2010  1  0.69592445  0.82667799  0.56443403  1
  C  C2011  1  0.76122771  0.95351184  0.55641083  1
  O  O2012  1  0.64487355  0.89711125  0.74086043  1
  C  C2013  1  0.56479313  0.91102088  0.66056377  1
  C  C2014  1  0.92680277  0.98206181  0.60323310  1
  C  C2015  1  0.59582788  0.82945232  0.53827752  1
  H  H2016  1  0.59602258  0.83109793  0.66313253  1
  H  H2017  1  0.96478306  0.87209963  0.62401228  1
  C  C2018  1  0.96460793  0.92054970  0.51599991  1
  H  H2019  1  0.63199431  0.78484025  0.67907874  1
  C  C2020  1  0.86336194  0.79555960  0.65977176  1
  H  H2021  1  0.79399852  0.82646215  0.68802069  1
  C  C2022  1  0.80244765  0.99871240  0.50822889  1
  N  N2023  1  0.89395970  0.85813013  0.52957964  1
  C  C2024  1  0.84530329  0.96775334  0.64194062  1
  H  H2025  1  0.83807654  0.97639240  0.58422611  1
  H  H2026  1  0.72336788  0.99548824  0.59928944  1
  H  H2027  1  0.62674339  0.92030128  0.70202634  1
  H  H2028  1  0.78778882  0.92425926  0.50203892  1
  C  C2029  1  0.65001440  0.95689927  0.65072242  1
  C  C2030  1  0.93315328  0.83422333  0.54798831  1
  C  C2031  1  0.89415019  0.83867155  0.65120475  1
  C  C2032  1  0.96291986  0.79510302  0.61519656  1
  C  C2033  1  0.61777001  0.78872318  0.55919067  1
  H  H2034  1  0.91321736  0.97785932  0.54453023  1
  H  H2035  1  0.92088686  0.79863320  0.55476965  1
  N  N2036  1  0.61809018  0.92628743  0.67379614  1
  C  C2037  1  0.74513836  0.63920898  0.91780324  1
  C  C2038  1  0.70476926  0.63360047  0.88917402  1
  C  C2039  1  0.89537605  0.64206990  0.90248540  1
  C  C2040  1  0.91570839  0.59822649  0.91454588  1
  C  C2041  1  0.86632223  0.55505045  0.86617633  1
  N  N2042  1  0.72409176  0.65253219  0.85489680  1
  H  H2043  1  0.63903054  0.66215071  0.93334252  1
  H  H2044  1  0.78390327  0.65784441  0.91462193  1
  H  H2045  1  0.75513708  0.56460636  0.86864033  1
  C  C2046  1  0.73036278  0.55053306  0.84581434  1
  C  C2047  1  0.69790208  0.57913707  0.82305144  1
  C  C2048  1  0.69577824  0.63380036  0.82639493  1
  C  C2049  1  0.90064936  0.55595796  0.89756667  1
  C  C2050  1  0.65846141  0.55759352  0.80056509  1
  C  C2051  1  0.79654250  0.55293469  0.77336856  1
  H  H2052  1  0.93691268  0.59431467  0.93986333  1
  C  C2053  1  0.84918489  0.59632567  0.84955847  1
  C  C2054  1  0.86081305  0.64047813  0.86935055  1
  H  H2055  1  0.82324405  0.59658932  0.82592693  1
  H  H2056  1  0.62852306  0.57619242  0.78376531  1
  O  O2057  1  0.66940960  0.65419008  0.80425434  1
  H  H2058  1  0.86359922  0.63176461  0.96231591  1
  H  H2059  1  0.81569635  0.68430797  0.82866483  1
  C  C2060  1  0.84167736  0.68309798  0.85275073  1
  C  C2061  1  0.90047921  0.68813737  0.91901775  1
  H  H2062  1  0.92685842  0.69287995  0.94388916  1
  C  C2063  1  0.63755281  0.69055266  0.95288033  1
  C  C2064  1  0.90250838  0.55138688  0.77156658  1
  H  H2065  1  0.72204854  0.68867191  0.85791693  1
  H  H2066  1  0.65319799  0.70663870  0.88246761  1
  N  N2067  1  0.95114520  0.67035419  0.81103087  1
  H  H2068  1  0.93894875  0.69610285  0.79250809  1
  C  C2069  1  0.65344242  0.60830694  0.89137547  1
  H  H2070  1  0.82121014  0.71590402  0.95497348  1
  C  C2071  1  0.81132229  0.71267614  0.98437277  1
  H  H2072  1  0.62165938  0.60770162  0.86964693  1
  N  N2073  1  0.57105577  0.71444988  0.83500261  1
  C  C2074  1  0.64348764  0.58448577  0.92388345  1
  C  C2075  1  0.73376052  0.61964950  0.95076474  1
  H  H2076  1  0.60719895  0.70937149  0.81950449  1
  C  C2077  1  0.54867629  0.67630787  0.85407153  1
  H  H2078  1  0.56762310  0.54893431  0.90404960  1
  C  C2079  1  0.68170597  0.59224486  0.95505664  1
  H  H2080  1  0.76276860  0.62605537  0.97394784  1
  C  C2081  1  0.59686380  0.55131823  0.92631977  1
  C  C2082  1  0.66898893  0.56621640  0.98617041  1
  C  C2083  1  0.86073776  0.63488921  0.99167940  1
  C  C2084  1  0.87197952  0.72922234  0.90869392  1
  C  C2085  1  0.84428179  0.72628147  0.87376425  1
  C  C2086  1  0.62518370  0.68158913  0.98885214  1
  H  H2087  1  0.88140662  0.53887565  0.98730178  1
  C  C2088  1  0.54812763  0.63312530  0.83529172  1
  H  H2089  1  0.56729551  0.62715499  0.80965556  1
  H  H2090  1  0.92357157  0.64107156  0.80965955  1
  H  H2091  1  0.61767619  0.64520432  0.99847925  1
  C  C2092  1  0.65396687  0.73506753  0.93776574  1
  C  C2093  1  0.62221374  0.53396540  0.98969268  1
  H  H2094  1  0.99558254  0.53889992  0.77935460  1
  H  H2095  1  0.53112934  0.72177829  0.90163982  1
  C  C2096  1  0.53076023  0.68544067  0.88960763  1
  O  O2097  1  0.52558513  0.55045762  0.80589110  1
  H  H2098  1  0.75645449  0.53604109  0.77607778  1
  H  H2099  1  0.98835934  0.61262801  0.85792828  1
  C  C2100  1  0.58602081  0.52746222  0.95840460  1
  C  C2101  1  0.50981623  0.64765540  0.90819543  1
  H  H2102  1  0.85671581  0.52105141  0.85144181  1
  H  H2103  1  0.97899912  0.62762755  0.99659315  1
  C  C2104  1  0.79932984  0.60065108  0.76391895  1
  C  C2105  1  0.52046568  0.59836139  0.85570122  1
  C  C2106  1  0.66151954  0.50838020  0.79758143  1
  C  C2107  1  0.98761491  0.68466123  0.83794772  1
  C  C2108  1  0.85345455  0.62512985  0.76082894  1
  H  H2109  1  0.76131705  0.62133556  0.75875417  1
  C  C2110  1  0.98390618  0.73523364  0.98950235  1
  C  C2111  1  0.66082304  0.73786632  0.90078383  1
  C  C2112  1  0.90636489  0.59879580  0.76310131  1
  C  C2113  1  0.95380775  0.52443237  0.78197244  1
  N  N2114  1  0.91198660  0.51462206  0.91837757  1
  C  C2115  1  0.84622059  0.52559515  0.77837536  1
  H  H2116  1  0.92745685  0.51892762  0.94409278  1
  H  H2117  1  0.94622512  0.61790614  0.75909483  1
  N  N2118  1  0.73414279  0.50420479  0.84362797  1
  H  H2119  1  0.55276415  0.72223677  0.77385316  1
  O  O2120  1  0.86887506  0.71623262  0.75366855  1
  C  C2121  1  0.85876236  0.67599295  0.75636043  1
  H  H2122  1  0.54803100  0.50537768  0.95924964  1
  C  C2123  1  0.50325702  0.60461730  0.89097893  1
  C  C2124  1  0.50697415  0.55303428  0.83691852  1
  O  O2125  1  0.51453655  0.68897950  0.96286368  1
  Cu  Cu2126  1  0.50126744  0.50930959  0.77298877  1
  H  H2127  1  0.57955226  0.74724302  0.84788145  1
  H  H2128  1  0.62200302  0.73406723  0.76965388  1
  N  N2129  1  0.58131557  0.74303718  0.76250534  1
  C  C2130  1  0.50943653  0.80831679  0.76835037  1
  H  H2131  1  0.99820630  0.75884928  0.82079069  1
  H  H2132  1  0.70268494  0.85682553  0.90017036  1
  H  H2133  1  0.75331400  0.77493044  0.98729620  1
  O  O2134  1  0.52501532  0.83067321  0.98182497  1
  C  C2135  1  0.55061087  0.88623573  0.76640265  1
  H  H2136  1  0.87278228  0.76122407  0.92402028  1
  C  C2137  1  0.68031874  0.81743881  0.94773891  1
  O  O2138  1  0.77222122  0.91906518  0.92035423  1
  H  H2139  1  0.56956547  0.85069587  0.83057286  1
  N  N2140  1  0.55406534  0.86406805  0.85413029  1
  H  H2141  1  0.55946184  0.95470789  0.87143181  1
  C  C2142  1  0.98440292  0.76292745  0.95771106  1
  C  C2143  1  0.90941105  0.86493835  0.91906455  1
  C  C2144  1  0.85636145  0.84199819  0.97559293  1
  H  H2145  1  0.54127502  0.92480976  0.76925206  1
  O  O2146  1  0.81422217  0.80602886  0.84349651  1
  O  O2147  1  0.98495603  0.96389700  0.89349322  1
  H  H2148  1  0.69103884  0.84935955  0.96464610  1
  C  C2149  1  0.82705976  0.77124425  0.85770471  1
  H  H2150  1  0.98564310  0.82588887  0.90620502  1
  C  C2151  1  0.90201471  0.80967540  0.98188162  1
  H  H2152  1  0.69769083  0.92541652  0.94731403  1
  H  H2153  1  0.65941613  0.94130400  0.84873772  1
  C  C2154  1  0.55243527  0.92923824  0.96069622  1
  C  C2155  1  0.60967866  0.92212397  0.96436156  1
  C  C2156  1  0.81093495  0.89766284  0.93031787  1
  H  H2157  1  0.91459089  0.88569494  0.89500994  1
  H  H2158  1  0.99659977  0.83898648  0.78484666  1
  N  N2159  1  0.66491317  0.93194701  0.87393102  1
  H  H2160  1  0.52421646  0.92878795  0.98395208  1
  C  C2161  1  0.62955574  0.93783988  0.90418094  1
  H  H2162  1  0.54920651  0.85500781  0.92655907  1
  C  C2163  1  0.85890350  0.86819415  0.94231069  1
  C  C2164  1  0.95014340  0.83260470  0.92490373  1
  C  C2165  1  0.66377945  0.77355256  0.96552009  1
  C  C2166  1  0.51622508  0.83472895  0.87343193  1
  C  C2167  1  0.65360996  0.92813803  0.93850481  1
  H  H2168  1  0.83000861  0.85424692  0.99800838  1
  H  H2169  1  0.59139761  0.87579534  0.86554138  1
  C  C2170  1  0.68797136  0.82372376  0.91206501  1
  O  O2171  1  0.67060277  0.79736124  0.81896977  1
  C  C2172  1  0.57098540  0.94455378  0.89821700  1
  C  C2173  1  0.94719589  0.80144986  0.95506728  1
  C  C2174  1  0.80715818  0.99679646  0.98632958  1
  H  H2175  1  0.70781248  0.93231472  0.87555726  1
  C  C2176  1  0.53259846  0.94267871  0.92624666  1
  C  C2177  1  0.67615160  0.78323864  0.88799856  1
  C  C2178  1  0.67384704  0.79302313  0.84983710  1
  C  C2179  1  0.51753761  0.83541612  0.91088827  1
  C  C2180  1  0.60423708  0.87036604  0.75074718  1
  C  C2181  1  0.50644722  0.85685446  0.77431319  1
  C  C2182  1  0.56606651  0.79015704  0.75990164  1
  C  C2183  1  0.61153751  0.82036162  0.75297245  1
