# generated using pymatgen
data_ZnH16(C5N2)4
_symmetry_space_group_name_H-M   'P 1'
_cell_length_a   27.71944239
_cell_length_b   32.96426817
_cell_length_c   26.49980924
_cell_angle_alpha   90.00000000
_cell_angle_beta   90.00000000
_cell_angle_gamma   90.00000000
_symmetry_Int_Tables_number   1
_chemical_formula_structural   ZnH16(C5N2)4
_chemical_formula_sum   'Zn48 H768 C960 N384'
_cell_volume   24214.23070752
_cell_formula_units_Z   48
loop_
 _symmetry_equiv_pos_site_id
 _symmetry_equiv_pos_as_xyz
  1  'x, y, z'
loop_
 _atom_site_type_symbol
 _atom_site_label
 _atom_site_symmetry_multiplicity
 _atom_site_fract_x
 _atom_site_fract_y
 _atom_site_fract_z
 _atom_site_occupancy
  N  N0  1  0.18702914  0.18548539  0.09513085  1
  C  C1  1  0.14408590  0.20602107  0.07550301  1
  H  H2  1  0.18380561  0.21270196  0.16756683  1
  C  C3  1  0.20047092  0.18918321  0.14316260  1
  C  C4  1  0.23374668  0.15698177  0.15191534  1
  C  C5  1  0.21025987  0.15150252  0.07356570  1
  H  H6  1  0.21001842  0.14007598  0.03496563  1
  N  N7  1  0.23664945  0.13449592  0.10977890  1
  C  C8  1  0.11915542  0.18246561  0.03871007  1
  N  N9  1  0.02768820  0.12619094  0.21604535  1
  H  H10  1  0.12787317  0.14989407  0.03516467  1
  H  H11  1  0.08169174  0.02467798  0.05581703  1
  C  C12  1  0.08093318  0.20241019  0.01442179  1
  H  H13  1  0.04838420  0.21381715  0.21099976  1
  C  C14  1  0.03483411  0.08441027  0.21758802  1
  C  C15  1  0.10757590  0.03328070  0.02709769  1
  C  C16  1  0.21816509  0.01336348  0.07930354  1
  N  N17  1  0.24024719  0.03886655  0.11321578  1
  H  H18  1  0.21210562  0.02249532  0.04009818  1
  C  C19  1  0.23438001  0.02427277  0.15936885  1
  C  C20  1  0.13324601  0.24621032  0.08941972  1
  C  C21  1  0.06842726  0.24350514  0.02587345  1
  C  C22  1  0.06072531  0.15409549  0.24086855  1
  N  N23  1  0.13598298  0.00619306  0.00323311  1
  H  H24  1  0.24721675  0.03703139  0.19444992  1
  C  C25  1  0.06632189  0.19621507  0.24031888  1
  H  H26  1  0.06465259  0.06856711  0.24052877  1
  N  N27  1  0.12319942  0.06954374  0.01183624  1
  H  H28  1  0.06258222  0.11838311  0.01090119  1
  C  C29  1  0.34523759  0.00367707  0.01473853  1
  H  H30  1  0.25322734  0.14942758  0.18568941  1
  H  H31  1  0.41474649  0.23750824  0.18307597  1
  H  H32  1  0.30958937  0.01009337  0.03400098  1
  H  H33  1  0.26032215  0.20498324  0.04122554  1
  H  H34  1  0.49283613  0.10492608  0.19177472  1
  H  H35  1  0.27730686  0.20809042  0.12197052  1
  C  C36  1  0.47680155  0.17904433  0.16056143  1
  H  H37  1  0.45402161  0.15396361  0.14514391  1
  C  C38  1  0.47971070  0.18715861  0.21214025  1
  H  H39  1  0.45642185  0.02226835  0.06819222  1
  C  C40  1  0.46858383  0.06713417  0.12679366  1
  Zn  Zn41  1  0.27611712  0.08671696  0.09006651  1
  C  C42  1  0.35335636  0.10744426  0.16678794  1
  N  N43  1  0.33971902  0.08530485  0.12553483  1
  C  C44  1  0.37818822  0.06605491  0.10855225  1
  H  H45  1  0.37606106  0.04808228  0.07315725  1
  N  N46  1  0.41892882  0.07787597  0.13584585  1
  C  C47  1  0.40346859  0.10407156  0.17222256  1
  H  H48  1  0.32743469  0.12998019  0.18245100  1
  H  H49  1  0.42829422  0.11831642  0.19957986  1
  N  N50  1  0.34774222  0.20982003  0.08701058  1
  C  C51  1  0.33959392  0.20243187  0.03270470  1
  H  H52  1  0.32366139  0.05691622  0.21045744  1
  C  C53  1  0.31521985  0.21287447  0.12676660  1
  C  C54  1  0.29094444  0.20581138  0.01462476  1
  N  N55  1  0.33736902  0.22441270  0.16908378  1
  C  C56  1  0.39256311  0.21582253  0.10616233  1
  C  C57  1  0.48467595  0.04128327  0.08628619  1
  N  N58  1  0.29525360  0.09352050  0.01600960  1
  C  C59  1  0.38631928  0.22547336  0.15778089  1
  H  H60  1  0.42623114  0.21316302  0.08359095  1
  H  H61  1  0.34992374  0.01022160  0.15998460  1
  H  H62  1  0.36192329  0.12794675  0.02424313  1
  Zn  Zn63  1  0.31151868  0.23612123  0.23334721  1
  H  H64  1  0.41635863  0.19592389  0.01352641  1
  C  C65  1  0.49288088  0.21028213  0.12830906  1
  H  H66  1  0.49639567  0.13241031  0.07888733  1
  C  C67  1  0.49901297  0.15948367  0.05507840  1
  N  N68  1  0.49495130  0.19840295  0.07588467  1
  C  C69  1  0.37998339  0.20376816  0.00057781  1
  C  C70  1  0.24828588  0.30493250  0.24842094  1
  H  H71  1  0.15449507  0.26264077  0.11723461  1
  C  C72  1  0.14860495  0.49516825  0.15491555  1
  H  H73  1  0.01664300  0.38587425  0.11161746  1
  N  N74  1  0.00218409  0.48397084  0.22535545  1
  H  H75  1  0.23998069  0.25364908  0.14419856  1
  Zn  Zn76  1  0.05872796  0.36925165  0.22041580  1
  H  H77  1  0.03537679  0.27629132  0.22739743  1
  H  H78  1  0.03953957  0.26150597  0.00555275  1
  C  C79  1  0.09212497  0.26317706  0.06467457  1
  H  H80  1  0.01822920  0.39043001  0.03104883  1
  C  C81  1  0.23271038  0.27359755  0.17654508  1
  N  N82  1  0.02717372  0.42106904  0.23565345  1
  H  H83  1  0.02870101  0.32234214  0.03307595  1
  C  C84  1  0.02184434  0.42202314  0.01442987  1
  C  C85  1  0.10949625  0.46420400  0.09531146  1
  C  C86  1  0.04433381  0.32792609  0.07066209  1
  H  H87  1  0.08776882  0.46155350  0.06222562  1
  H  H88  1  0.17603474  0.38373757  0.15703408  1
  N  N89  1  0.21609875  0.32984117  0.22189805  1
  C  C90  1  0.17956227  0.39347830  0.19720131  1
  H  H91  1  0.10587493  0.37932315  0.04149352  1
  H  H92  1  0.10250898  0.28968034  0.16828406  1
  C  C93  1  0.12329633  0.43363154  0.12799917  1
  C  C94  1  0.03336167  0.45291488  0.20735439  1
  N  N95  1  0.07422933  0.29955958  0.09129827  1
  H  H96  1  0.17531154  0.32338551  0.15470244  1
  H  H97  1  0.05919426  0.45525164  0.17566662  1
  N  N98  1  0.06082115  0.34426363  0.15066791  1
  H  H99  1  0.10958159  0.40197284  0.13004950  1
  C  C100  1  0.20305371  0.36999757  0.23648585  1
  C  C101  1  0.08343436  0.31082750  0.14086459  1
  N  N102  1  0.14693034  0.45430929  0.16523694  1
  C  C103  1  0.20361417  0.30781281  0.17948770  1
  C  C104  1  0.03903419  0.35854130  0.10710744  1
  C  C105  1  0.16408162  0.43238799  0.21039828  1
  C  C106  1  0.06765620  0.28415595  0.24968134  1
  N  N107  1  0.26077006  0.27378066  0.21975675  1
  H  H108  1  0.48797629  0.49598648  0.17878640  1
  H  H109  1  0.37510688  0.31298008  0.23376846  1
  N  N110  1  0.15631298  0.07983027  0.40174137  1
  Zn  Zn111  1  0.13526328  0.03747485  0.45317865  1
  C  C112  1  0.13178275  0.08581561  0.35971007  1
  C  C113  1  0.19183683  0.10680542  0.41012067  1
  C  C114  1  0.18455756  0.13741825  0.37385197  1
  H  H115  1  0.10056863  0.06891493  0.34433341  1
  N  N116  1  0.14694726  0.12317781  0.34603384  1
  H  H117  1  0.20256894  0.16840224  0.36717618  1
  C  C118  1  0.11930217  0.15091911  0.31213749  1
  H  H119  1  0.14728070  0.20727166  0.34094573  1
  C  C120  1  0.12409579  0.19284297  0.31297385  1
  H  H121  1  0.21503647  0.10621524  0.44233906  1
  H  H122  1  0.20538085  0.11358357  0.27954385  1
  H  H123  1  0.18044036  0.20344480  0.44137965  1
  C  C124  1  0.09892358  0.21410046  0.27505385  1
  H  H125  1  0.04309478  0.14353635  0.38832317  1
  C  C126  1  0.07909220  0.18421015  0.44769963  1
  H  H127  1  0.09858939  0.21033185  0.42984341  1
  C  C128  1  0.04994112  0.15361717  0.42745635  1
  C  C129  1  0.09019053  0.13136715  0.27603262  1
  H  H130  1  0.08629948  0.09866789  0.28108905  1
  H  H131  1  0.16725827  0.02137106  0.34113389  1
  C  C132  1  0.19816437  0.22669863  0.42018772  1
  H  H133  1  0.20433172  0.19734444  0.25675884  1
  N  N134  1  0.03665539  0.12982804  0.46732144  1
  C  C135  1  0.23479988  0.13403404  0.26963358  1
  C  C136  1  0.23486517  0.17634983  0.26180404  1
  H  H137  1  0.01876424  0.09186701  0.37743398  1
  H  H138  1  0.18712073  0.00633380  0.25673370  1
  C  C139  1  0.24314526  0.22132022  0.39330568  1
  C  C140  1  0.00727951  0.07521735  0.41141655  1
  C  C141  1  0.01130348  0.09100929  0.46158211  1
  H  H142  1  0.24473331  0.15553817  0.46385273  1
  N  N143  1  0.08329512  0.17727448  0.49904678  1
  H  H144  1  0.15557543  0.12556057  0.49164824  1
  H  H145  1  0.26415779  0.09273858  0.36138294  1
  N  N146  1  0.26021056  0.00842159  0.39306999  1
  C  C147  1  0.27308348  0.01600316  0.44104491  1
  H  H148  1  0.29567407  0.04144219  0.45272548  1
  C  C149  1  0.27974272  0.06992870  0.33492320  1
  H  H150  1  0.39611908  0.01204781  0.37567732  1
  H  H151  1  0.45029163  0.13238208  0.41035268  1
  N  N152  1  0.28151393  0.11928356  0.26598141  1
  C  C153  1  0.27066716  0.15700954  0.43274906  1
  C  C154  1  0.28001036  0.02941013  0.34759361  1
  C  C155  1  0.48044795  0.11004067  0.31003698  1
  N  N156  1  0.27217084  0.18548919  0.39381975  1
  C  C157  1  0.31050907  0.17373852  0.36420832  1
  N  N158  1  0.33053898  0.13933229  0.38220851  1
  H  H159  1  0.32786052  0.18934734  0.33247582  1
  Zn  Zn160  1  0.38659576  0.10768475  0.35561925  1
  N  N161  1  0.43265380  0.12350164  0.31166434  1
  C  C162  1  0.42882284  0.15289847  0.27788292  1
  C  C163  1  0.39400807  0.02918556  0.41053675  1
  C  C164  1  0.30819355  0.12836791  0.42511027  1
  N  N165  1  0.39488791  0.06858477  0.41535264  1
  H  H166  1  0.46001931  0.18307472  0.35007975  1
  H  H167  1  0.32043250  0.10322138  0.44879789  1
  H  H168  1  0.38991358  0.20490411  0.32155622  1
  C  C169  1  0.29357862  0.07905191  0.28490617  1
  C  C170  1  0.39868511  0.07886567  0.46496681  1
  H  H171  1  0.45116568  0.21384647  0.44932335  1
  C  C172  1  0.47885500  0.20757564  0.36863656  1
  N  N173  1  0.39775793  0.01254741  0.45848679  1
  H  H174  1  0.34664145  0.22622417  0.44582110  1
  C  C175  1  0.37131539  0.21129954  0.47270332  1
  H  H176  1  0.40146307  0.11244237  0.47505459  1
  H  H177  1  0.40217358  0.17600540  0.26282131  1
  C  C178  1  0.42206242  0.20386968  0.47589909  1
  H  H179  1  0.49224263  0.08450452  0.33385347  1
  C  C180  1  0.39933276  0.04338843  0.49358489  1
  H  H181  1  0.49975631  0.05780256  0.43325843  1
  C  C182  1  0.48986068  0.12596084  0.41728155  1
  N  N183  1  0.47310948  0.15758682  0.25423715  1
  C  C184  1  0.30844463  0.00894349  0.26566131  1
  N  N185  1  0.28212723  0.18513072  0.25676591  1
  C  C186  1  0.31089313  0.15315562  0.26182742  1
  C  C187  1  0.31495626  0.05016788  0.25092733  1
  C  C188  1  0.39394471  0.23643160  0.30779503  1
  C  C189  1  0.46906471  0.24898594  0.35891375  1
  H  H190  1  0.35036443  0.15262576  0.25787628  1
  N  N191  1  0.19859596  0.49395215  0.40179998  1
  H  H192  1  0.07706726  0.48993470  0.35026967  1
  C  C193  1  0.19061066  0.48666043  0.35411798  1
  C  C194  1  0.12375166  0.25505256  0.48501479  1
  N  N195  1  0.09886017  0.25788460  0.27412856  1
  H  H196  1  0.15708883  0.26648280  0.32551159  1
  C  C197  1  0.17822372  0.26502121  0.41492141  1
  N  N198  1  0.13161202  0.27232888  0.43924730  1
  N  N199  1  0.05511951  0.28339363  0.45600334  1
  C  C200  1  0.08794539  0.28924517  0.42191178  1
  H  H201  1  0.08127880  0.30198868  0.38442009  1
  H  H202  1  0.11717001  0.42192286  0.43187682  1
  C  C203  1  0.18568551  0.42393791  0.29700403  1
  H  H204  1  0.18468675  0.32928993  0.39720809  1
  C  C205  1  0.20595659  0.38542432  0.28616395  1
  N  N206  1  0.18674021  0.44409950  0.34603269  1
  C  C207  1  0.18628351  0.42657562  0.39186847  1
  C  C208  1  0.20212309  0.29964475  0.39325405  1
  C  C209  1  0.19262638  0.45756337  0.42701229  1
  C  C210  1  0.11018906  0.41209758  0.47146669  1
  H  H211  1  0.18170376  0.39392303  0.39598958  1
  C  C212  1  0.11977759  0.32308982  0.29136609  1
  H  H213  1  0.13777471  0.35111010  0.30167822  1
  C  C214  1  0.12992445  0.28230971  0.30155464  1
  H  H215  1  0.19277125  0.45765098  0.46901389  1
  H  H216  1  0.07929464  0.47241136  0.41667986  1
  H  H217  1  0.22571613  0.37072655  0.31640176  1
  N  N218  1  0.08138073  0.32276069  0.25913986  1
  C  C219  1  0.07622832  0.26545876  0.49681979  1
  H  H220  1  0.24793483  0.36296100  0.43531467  1
  C  C221  1  0.07914395  0.48197233  0.49858903  1
  C  C222  1  0.07305893  0.49509503  0.44770571  1
  H  H223  1  0.12698484  0.34449681  0.48159733  1
  C  C224  1  0.10849888  0.37372078  0.49589278  1
  C  C225  1  0.24818257  0.29308891  0.37124646  1
  C  C226  1  0.16692917  0.45009033  0.25949871  1
  H  H227  1  0.15135369  0.48077105  0.26753637  1
  C  C228  1  0.49746217  0.27999384  0.38260101  1
  C  C229  1  0.40895190  0.30332066  0.45950842  1
  C  C230  1  0.33741229  0.37222405  0.35623677  1
  H  H231  1  0.26357937  0.31483562  0.28653660  1
  N  N232  1  0.34054927  0.49482874  0.42606534  1
  C  C233  1  0.42976282  0.29491031  0.29473944  1
  H  H234  1  0.49037086  0.31383457  0.37666357  1
  H  H235  1  0.30181785  0.25007447  0.35001267  1
  N  N236  1  0.43408653  0.26013928  0.32139121  1
  H  H237  1  0.37222061  0.38632287  0.34535865  1
  N  N238  1  0.36780343  0.25547226  0.27453996  1
  H  H239  1  0.32777221  0.35257651  0.48559739  1
  H  H240  1  0.45863564  0.31829330  0.29871065  1
  H  H241  1  0.39837907  0.49343463  0.48375838  1
  C  C242  1  0.41435731  0.32155187  0.41306095  1
  C  C243  1  0.26621797  0.25310441  0.36798600  1
  C  C244  1  0.38817597  0.29142282  0.26297279  1
  H  H245  1  0.32822126  0.31172385  0.31376362  1
  C  C246  1  0.27446266  0.36262292  0.40477469  1
  Zn  Zn247  1  0.32098882  0.43811257  0.43372952  1
  H  H248  1  0.40175089  0.27161523  0.47047046  1
  C  C249  1  0.43077864  0.36803120  0.47090195  1
  N  N250  1  0.27897874  0.32928947  0.37285290  1
  N  N251  1  0.42875760  0.36034926  0.42272367  1
  H  H252  1  0.40489079  0.31096185  0.37468740  1
  C  C253  1  0.31776439  0.33431075  0.34297886  1
  N  N254  1  0.30969147  0.38861524  0.39314671  1
  H  H255  1  0.43690960  0.39628228  0.49134924  1
  N  N256  1  0.41463121  0.33365005  0.49484624  1
  C  C257  1  0.11177510  0.06221081  0.67311563  1
  H  H258  1  0.09208877  0.17991229  0.61943030  1
  N  N259  1  0.10771084  0.10248989  0.65797514  1
  C  C260  1  0.18556729  0.08625887  0.67175122  1
  C  C261  1  0.20183604  0.19095385  0.56122549  1
  H  H262  1  0.16178276  0.19049175  0.56591161  1
  C  C263  1  0.15466368  0.11685813  0.65807933  1
  H  H264  1  0.16064399  0.14793887  0.64384289  1
  N  N265  1  0.15862639  0.05283202  0.68262373  1
  H  H266  1  0.22486245  0.08352786  0.67226281  1
  N  N267  1  0.20933063  0.11443628  0.55282128  1
  C  C268  1  0.06136184  0.16162305  0.62745601  1
  C  C269  1  0.06205273  0.12217144  0.64967434  1
  C  C270  1  0.22901041  0.22623105  0.54618009  1
  C  C271  1  0.19661041  0.04829230  0.54647806  1
  H  H272  1  0.07943669  0.04349062  0.67625378  1
  C  C273  1  0.22964756  0.15415634  0.55749861  1
  C  C274  1  0.17091720  0.10472565  0.51954526  1
  H  H275  1  0.05427601  0.13251865  0.55045974  1
  N  N276  1  0.01506223  0.22572112  0.61476763  1
  N  N277  1  0.16771651  0.06539980  0.51175262  1
  C  C278  1  0.02028410  0.10358294  0.66894962  1
  C  C279  1  0.01714229  0.18233553  0.62504680  1
  H  H280  1  0.01798327  0.07191446  0.68167248  1
  H  H281  1  0.20579706  0.01466549  0.54550991  1
  H  H282  1  0.14878893  0.20109918  0.71308829  1
  C  C283  1  0.06933091  0.21198660  0.72941755  1
  C  C284  1  0.05752584  0.14446536  0.51079632  1
  H  H285  1  0.09338525  0.24612172  0.63388457  1
  C  C286  1  0.22491787  0.07898704  0.57167868  1
  C  C287  1  0.11695719  0.20083865  0.73916031  1
  H  H288  1  0.14174315  0.24434042  0.58517207  1
  H  H289  1  0.20565583  0.00252124  0.67274181  1
  H  H290  1  0.04992741  0.21769340  0.69374855  1
  H  H291  1  0.00252197  0.08674999  0.54340383  1
  C  C292  1  0.02919185  0.00804544  0.73927898  1
  H  H293  1  0.15337135  0.24029213  0.50476628  1
  H  H294  1  0.37231476  0.00414415  0.61880527  1
  H  H295  1  0.25006596  0.04217933  0.70959484  1
  H  H296  1  0.25850456  0.07672854  0.59310860  1
  H  H297  1  0.45987109  0.01779915  0.61891727  1
  C  C298  1  0.30917480  0.02156789  0.66301344  1
  C  C299  1  0.28767996  0.04736054  0.70069617  1
  C  C300  1  0.35745152  0.02406901  0.64689084  1
  C  C301  1  0.31449075  0.08076850  0.71708014  1
  C  C302  1  0.28079179  0.15536763  0.55060896  1
  H  H303  1  0.41038050  0.14323900  0.62936478  1
  C  C304  1  0.38339136  0.05930466  0.66441784  1
  H  H305  1  0.30229606  0.12751789  0.55210552  1
  N  N306  1  0.42289811  0.07399019  0.63239459  1
  C  C307  1  0.42941740  0.11453788  0.61602448  1
  C  C308  1  0.30278897  0.19105149  0.52970398  1
  C  C309  1  0.38996285  0.17418520  0.54237959  1
  N  N310  1  0.43058291  0.18286398  0.51925187  1
  N  N311  1  0.35320529  0.19199462  0.51309863  1
  H  H312  1  0.38636299  0.15735166  0.57742041  1
  N  N313  1  0.46492269  0.11495369  0.58401452  1
  C  C314  1  0.48388099  0.07705516  0.58039540  1
  C  C315  1  0.36308517  0.08577761  0.69955831  1
  C  C316  1  0.45616722  0.05068837  0.61084601  1
  C  C317  1  0.27592960  0.22711353  0.52433695  1
  C  C318  1  0.36747491  0.18997471  0.68063964  1
  H  H319  1  0.40167494  0.03650229  0.53338790  1
  N  N320  1  0.40697364  0.19999039  0.70776563  1
  H  H321  1  0.38430948  0.11095865  0.71306511  1
  C  C322  1  0.35868001  0.22069931  0.64388885  1
  H  H323  1  0.34571163  0.16316570  0.68779759  1
  C  C324  1  0.42457167  0.23353943  0.68810617  1
  H  H325  1  0.32904622  0.22814842  0.61755324  1
  Zn  Zn326  1  0.49155467  0.16600070  0.55032613  1
  N  N327  1  0.29448915  0.11122563  0.74949197  1
  N  N328  1  0.39346596  0.24781502  0.64981355  1
  H  H329  1  0.45920764  0.24678623  0.69734115  1
  H  H330  1  0.05451149  0.25561936  0.52870144  1
  H  H331  1  0.00725009  0.36936238  0.52334264  1
  C  C332  1  0.05577061  0.25160108  0.62006444  1
  N  N333  1  0.21022558  0.26650401  0.55332361  1
  C  C334  1  0.16500887  0.27088932  0.57610479  1
  H  H335  1  0.17810384  0.47127593  0.61302697  1
  C  C336  1  0.18884927  0.33131007  0.55458802  1
  N  N337  1  0.04114030  0.28712021  0.60446342  1
  N  N338  1  0.15258060  0.30968760  0.57542149  1
  N  N339  1  0.11047726  0.44344172  0.67254152  1
  C  C340  1  0.06749581  0.38803428  0.68870362  1
  C  C341  1  0.12077895  0.41284909  0.63705771  1
  H  H342  1  0.14213600  0.41588717  0.60163145  1
  N  N343  1  0.09389766  0.38003855  0.64576898  1
  Zn  Zn344  1  0.08684551  0.33634151  0.59926058  1
  H  H345  1  0.06392280  0.43012435  0.58441943  1
  C  C346  1  0.07810297  0.41761640  0.54803877  1
  C  C347  1  0.07597207  0.42767518  0.70448949  1
  H  H348  1  0.04470790  0.36471260  0.70492124  1
  C  C349  1  0.13122782  0.48295310  0.67879714  1
  N  N350  1  0.09003338  0.37855471  0.54216381  1
  C  C351  1  0.22621647  0.30443927  0.54288655  1
  H  H352  1  0.18319817  0.36533573  0.55446728  1
  C  C353  1  0.16888442  0.49219897  0.64268897  1
  N  N354  1  0.19902989  0.34610296  0.73339380  1
  H  H355  1  0.06101544  0.44750979  0.73322804  1
  C  C356  1  0.17656579  0.31149078  0.71941875  1
  C  C357  1  0.22218176  0.37835465  0.70438650  1
  C  C358  1  0.22491969  0.41585890  0.73016126  1
  H  H359  1  0.23042183  0.34368542  0.63249791  1
  C  C360  1  0.23457223  0.37406645  0.65320050  1
  N  N361  1  0.09061137  0.43849397  0.50544077  1
  H  H362  1  0.17204828  0.30397836  0.67971209  1
  C  C363  1  0.24445298  0.45071955  0.70538968  1
  N  N364  1  0.24530128  0.48883792  0.73335961  1
  H  H365  1  0.42264080  0.39308799  0.56467498  1
  C  C366  1  0.31489274  0.37154456  0.51679669  1
  H  H367  1  0.29012423  0.25417028  0.50964969  1
  H  H368  1  0.35522996  0.46963870  0.72598800  1
  H  H369  1  0.42101947  0.45990405  0.63370468  1
  C  C370  1  0.37570529  0.44430884  0.71052347  1
  N  N371  1  0.30308357  0.41041912  0.50130945  1
  H  H372  1  0.26229570  0.30862591  0.52550342  1
  H  H373  1  0.40719003  0.26171213  0.54713128  1
  C  C374  1  0.27930135  0.42732680  0.53984448  1
  H  H375  1  0.48569759  0.44439732  0.65415649  1
  H  H376  1  0.30387052  0.33809232  0.59139530  1
  C  C377  1  0.40471412  0.28753479  0.57092462  1
  N  N378  1  0.27839525  0.40117849  0.58012000  1
  N  N379  1  0.40844961  0.39346059  0.66611962  1
  C  C380  1  0.40397490  0.28692984  0.62597980  1
  H  H381  1  0.47130380  0.38741179  0.71984425  1
  C  C382  1  0.41156090  0.32031162  0.65808421  1
  C  C383  1  0.41857976  0.36203426  0.57994788  1
  H  H384  1  0.26871036  0.47468143  0.63376459  1
  C  C385  1  0.43688076  0.40179628  0.70781468  1
  H  H386  1  0.26305035  0.45775488  0.53948204  1
  H  H387  1  0.34402402  0.41841000  0.63642679  1
  C  C388  1  0.25362046  0.40854762  0.62833489  1
  C  C389  1  0.42184455  0.48854541  0.61354671  1
  C  C390  1  0.30015320  0.36558819  0.56688737  1
  C  C391  1  0.25769055  0.44678772  0.65303713  1
  H  H392  1  0.49420316  0.26484758  0.56968897  1
  C  C393  1  0.41593928  0.35829560  0.63236417  1
  H  H394  1  0.40911944  0.31877849  0.70039467  1
  C  C395  1  0.37052087  0.41952797  0.66872018  1
  C  C396  1  0.41282487  0.32674040  0.54865999  1
  N  N397  1  0.41734445  0.43203355  0.73319656  1
  H  H398  1  0.12964671  0.13090427  0.92579330  1
  C  C399  1  0.11775235  0.11281655  0.89255810  1
  N  N400  1  0.08178978  0.07374165  0.83702960  1
  C  C401  1  0.08080250  0.08438253  0.88676419  1
  C  C402  1  0.04589493  0.04847492  0.81169581  1
  N  N403  1  0.13962390  0.11931947  0.84666538  1
  H  H404  1  0.05531800  0.07164541  0.91389663  1
  C  C405  1  0.12092393  0.09387708  0.81408513  1
  N  N406  1  0.11832511  0.18879370  0.78828549  1
  H  H407  1  0.06875638  0.17880194  0.84706159  1
  Zn  Zn408  1  0.17993665  0.16546886  0.82191798  1
  C  C409  1  0.07472407  0.18968176  0.80734148  1
  H  H410  1  0.06109546  0.03434522  0.96828241  1
  N  N411  1  0.23452620  0.22626137  0.94217099  1
  H  H412  1  0.21228179  0.06436902  0.89460725  1
  H  H413  1  0.17813080  0.09148212  0.95932910  1
  C  C414  1  0.01721114  0.19353616  0.94617210  1
  N  N415  1  0.04800402  0.17926879  0.98357009  1
  C  C416  1  0.19193278  0.21443816  0.95966902  1
  C  C417  1  0.16816285  0.02465928  0.97128888  1
  C  C418  1  0.06366353  0.02727631  0.76980967  1
  N  N419  1  0.04229940  0.20190463  0.77080859  1
  C  C420  1  0.15875356  0.06507203  0.97752022  1
  C  C421  1  0.04340689  0.13786018  0.98391784  1
  H  H422  1  0.13873186  0.02694150  0.88974306  1
  C  C423  1  0.02298669  0.02436348  0.96294891  1
  C  C424  1  0.24304989  0.05086878  0.87428440  1
  N  N425  1  0.24205616  0.14882367  0.79510919  1
  H  H426  1  0.12735004  0.09103118  0.77297829  1
  C  C427  1  0.24067668  0.01663812  0.84318707  1
  C  C428  1  0.00618577  0.12760318  0.94945168  1
  C  C429  1  0.15542063  0.23912088  0.93631455  1
  H  H430  1  0.11657214  0.24484743  0.94198698  1
  H  H431  1  0.19867889  0.00787004  0.95531573  1
  H  H432  1  0.21961631  0.09116888  0.75562870  1
  H  H433  1  0.10255575  0.02895478  0.75973296  1
  C  C434  1  0.24601967  0.11572336  0.76590046  1
  C  C435  1  0.15081125  0.00092756  0.86420747  1
  H  H436  1  0.24092398  0.05516112  0.97735290  1
  H  H437  1  0.01102164  0.22672086  0.94121192  1
  H  H438  1  0.19116640  0.19094218  0.98974047  1
  H  H439  1  0.49450159  0.02105633  0.98530744  1
  C  C440  1  0.28215086  0.00093813  0.81868515  1
  C  C441  1  0.40325701  0.02534787  0.77713560  1
  C  C442  1  0.36407594  0.01575440  0.96684229  1
  C  C443  1  0.45169321  0.02939581  0.89038999  1
  C  C444  1  0.48626187  0.02411384  0.85098471  1
  H  H445  1  0.36535296  0.11899404  0.91819886  1
  C  C446  1  0.28974248  0.06762863  0.88458194  1
  C  C447  1  0.32195121  0.21613088  0.92829762  1
  N  N448  1  0.47288610  0.11521597  0.77985659  1
  C  C449  1  0.46991307  0.09320406  0.82224037  1
  C  C450  1  0.33063931  0.05926002  0.85466197  1
  H  H451  1  0.44508993  0.09741386  0.85529472  1
  C  C452  1  0.46750725  0.16940405  0.87231474  1
  C  C453  1  0.44790325  0.17664963  0.92110042  1
  C  C454  1  0.33674555  0.10940208  0.94667477  1
  N  N455  1  0.29907279  0.08498186  0.93393795  1
  N  N456  1  0.43426926  0.18035664  0.83829742  1
  C  C457  1  0.39494107  0.19531246  0.86029470  1
  H  H458  1  0.43024975  0.05783342  0.89262746  1
  N  N459  1  0.40492825  0.19385723  0.91194079  1
  H  H460  1  0.36044758  0.20603140  0.84243365  1
  H  H461  1  0.36691427  0.07228985  0.86252001  1
  C  C462  1  0.36870519  0.20763360  0.94858084  1
  H  H463  1  0.35105592  0.03741506  0.93888614  1
  H  H464  1  0.31470845  0.22258531  0.88862576  1
  H  H465  1  0.46055028  0.16804750  0.95978112  1
  C  C466  1  0.28343889  0.21508202  0.96254213  1
  C  C467  1  0.27354749  0.07608764  0.97871863  1
  N  N468  1  0.49392332  0.05721824  0.81503864  1
  H  H469  1  0.29428645  0.19558904  0.81716837  1
  C  C470  1  0.28650019  0.16616524  0.79775290  1
  C  C471  1  0.32501855  0.02371878  0.82423981  1
  H  H472  1  0.40404906  0.05834496  0.77497044  1
  C  C473  1  0.33608438  0.11266547  0.99936117  1
  C  C474  1  0.31987560  0.14160852  0.77194885  1
  Zn  Zn475  1  0.43826597  0.16986722  0.76512075  1
  H  H476  1  0.36188954  0.14370976  0.76939049  1
  N  N477  1  0.36661340  0.00542688  0.79982870  1
  H  H478  1  0.14263802  0.26238009  0.77005196  1
  C  C479  1  0.22749658  0.25639858  0.90674724  1
  H  H480  1  0.20275388  0.47450570  0.79781226  1
  N  N481  1  0.18008269  0.26264355  0.90409284  1
  C  C482  1  0.22211720  0.49720253  0.77848564  1
  C  C483  1  0.11315793  0.37588137  0.99915813  1
  H  H484  1  0.20833233  0.41833121  0.76670511  1
  C  C485  1  0.16003827  0.29192837  0.76347285  1
  C  C486  1  0.05906707  0.46962339  0.95440583  1
  H  H487  1  0.08347183  0.47534913  0.92269310  1
  N  N488  1  0.16873935  0.31786430  0.80338210  1
  H  H489  1  0.16147271  0.31999362  0.98657174  1
  C  C490  1  0.09398105  0.37767087  0.91803365  1
  C  C491  1  0.13831607  0.34453041  0.97326994  1
  N  N492  1  0.12612192  0.34813097  0.92388821  1
  C  C493  1  0.05601496  0.43109926  0.97703617  1
  C  C494  1  0.19338772  0.34878576  0.78615471  1
  N  N495  1  0.08773738  0.39671120  0.96394055  1
  Zn  Zn496  1  0.14765776  0.30879682  0.87117213  1
  H  H497  1  0.20607955  0.37483081  0.81107809  1
  H  H498  1  0.07773468  0.38958495  0.88376093  1
  N  N499  1  0.41565921  0.49674015  0.84305029  1
  Zn  Zn500  1  0.44467632  0.45238832  0.79840549  1
  H  H501  1  0.46493109  0.49221035  0.90676315  1
  H  H502  1  0.43246579  0.37698951  0.87177661  1
  C  C503  1  0.46949429  0.38178905  0.85947975  1
  H  H504  1  0.25657724  0.27482551  0.88905295  1
  N  N505  1  0.48597504  0.41293083  0.83025704  1
  H  H506  1  0.13775839  0.58828560  0.10321196  1
  N  N507  1  0.12241996  0.72013788  0.05736090  1
  C  C508  1  0.17019499  0.58582900  0.12848561  1
  C  C509  1  0.16842609  0.59777643  0.17920433  1
  N  N510  1  0.05011022  0.58352168  0.09019627  1
  C  C511  1  0.06958426  0.62234411  0.08523352  1
  H  H512  1  0.06993930  0.64531799  0.11559139  1
  C  C513  1  0.21703893  0.57485919  0.10989207  1
  N  N514  1  0.09326699  0.62385685  0.04147247  1
  C  C515  1  0.06014714  0.56269832  0.04899861  1
  N  N516  1  0.22215110  0.56152697  0.05879249  1
  C  C517  1  0.20668757  0.59161963  0.21406218  1
  N  N518  1  0.13096855  0.62629032  0.19960697  1
  C  C519  1  0.13872577  0.66579148  0.21197032  1
  N  N520  1  0.09618705  0.68442486  0.22629270  1
  C  C521  1  0.18547680  0.54757358  0.02821569  1
  C  C522  1  0.08371470  0.61852441  0.20767560  1
  C  C523  1  0.02525341  0.53396775  0.15898927  1
  H  H524  1  0.04803095  0.53037934  0.04389225  1
  C  C525  1  0.08062923  0.72483811  0.07957973  1
  H  H526  1  0.05070226  0.70202059  0.08013059  1
  H  H527  1  0.14884734  0.54816798  0.04269836  1
  H  H528  1  0.17547697  0.68183298  0.20960110  1
  H  H529  1  0.16302770  0.52119682  0.17747681  1
  H  H530  1  0.05155690  0.51059907  0.14160533  1
  H  H531  1  0.06554777  0.58721619  0.20268361  1
  C  C532  1  0.06206414  0.65528945  0.22387143  1
  H  H533  1  0.02476595  0.66245865  0.23594215  1
  C  C534  1  0.02063116  0.57074811  0.13441413  1
  C  C535  1  0.08571186  0.58945126  0.01625620  1
  Zn  Zn536  1  0.13833695  0.67046017  0.01732264  1
  C  C537  1  0.23084915  0.72082231  0.24489911  1
  N  N538  1  0.12584476  0.50079363  0.11283529  1
  Zn  Zn539  1  0.09506332  0.73940810  0.24309222  1
  N  N540  1  0.24461512  0.71987320  0.19345562  1
  H  H541  1  0.46892837  0.50074655  0.07177922  1
  H  H542  1  0.25585183  0.65337178  0.17899659  1
  C  C543  1  0.25479737  0.68451806  0.16611494  1
  C  C544  1  0.46760932  0.51926943  0.15712838  1
  C  C545  1  0.26643386  0.70291442  0.12288012  1
  C  C546  1  0.25915210  0.57293828  0.13937237  1
  C  C547  1  0.26416600  0.55756750  0.03016340  1
  C  C548  1  0.25087024  0.57805567  0.19222390  1
  H  H549  1  0.29359634  0.56197287  0.12287460  1
  N  N550  1  0.43757488  0.55533476  0.09457913  1
  H  H551  1  0.32153162  0.67086481  0.06392244  1
  H  H552  1  0.39589013  0.62854438  0.07378384  1
  C  C553  1  0.42305814  0.57008364  0.04365714  1
  C  C554  1  0.39966815  0.60807959  0.04140317  1
  H  H555  1  0.40306936  0.60101551  0.14694282  1
  N  N556  1  0.44502614  0.55059197  0.17692023  1
  C  C557  1  0.42576648  0.57363585  0.14196923  1
  H  H558  1  0.34849426  0.55171736  0.17569753  1
  C  C559  1  0.33734024  0.56641804  0.21331810  1
  C  C560  1  0.33741944  0.68513436  0.03001337  1
  N  N561  1  0.29106205  0.57816726  0.22666413  1
  H  H562  1  0.29983604  0.57042654  0.04427780  1
  N  N563  1  0.33168803  0.72323466  0.01669088  1
  H  H564  1  0.40454004  0.64995334  0.20796976  1
  N  N565  1  0.26444730  0.74014897  0.11186321  1
  C  C566  1  0.45949297  0.52120338  0.10345100  1
  C  C567  1  0.43765246  0.65170706  0.23248349  1
  H  H568  1  0.45965732  0.71874490  0.23475988  1
  C  C569  1  0.46312272  0.68702423  0.24628128  1
  H  H570  1  0.45354486  0.74740687  0.02736489  1
  H  H571  1  0.43801373  0.51575144  0.00171507  1
  C  C572  1  0.14823399  0.75565856  0.06252057  1
  H  H573  1  0.18441606  0.75973536  0.04732605  1
  C  C574  1  0.19819396  0.98038599  0.10782724  1
  C  C575  1  0.00741797  0.84680151  0.15553551  1
  H  H576  1  0.17322113  0.95619354  0.09427403  1
  N  N577  1  0.01386219  0.95329629  0.18669295  1
  H  H578  1  0.16513269  0.76069423  0.14606543  1
  N  N579  1  0.07803351  0.76430523  0.09953064  1
  C  C580  1  0.11856548  0.78438940  0.08526329  1
  H  H581  1  0.11914768  0.81714644  0.08990987  1
  N  N582  1  0.03312140  0.89158055  0.03181712  1
  N  N583  1  0.01851911  0.88677614  0.16898495  1
  H  H584  1  0.09139271  0.96466196  0.18770262  1
  C  C585  1  0.03506703  0.78197373  0.12269965  1
  C  C586  1  0.18358849  0.92098328  0.18037549  1
  C  C587  1  0.06489157  0.90236576  0.16976349  1
  H  H588  1  0.08297339  0.83445934  0.13783881  1
  H  H589  1  0.09803022  0.88404656  0.16093157  1
  C  C590  1  0.16948976  0.89530171  0.03028344  1
  C  C591  1  0.04669919  0.82153587  0.14104585  1
  C  C592  1  0.06112871  0.94381575  0.18244805  1
  C  C593  1  0.18942963  0.96164959  0.19670244  1
  N  N594  1  0.21155155  0.87017875  0.03806654  1
  H  H595  1  0.19616203  0.90681198  0.14437357  1
  N  N596  1  0.13057781  0.78817315  0.21250012  1
  C  C597  1  0.17574495  0.82885488  0.16612033  1
  C  C598  1  0.15990510  0.78819043  0.17172652  1
  N  N599  1  0.15275653  0.85143260  0.20186372  1
  C  C600  1  0.12201297  0.88094326  0.03899064  1
  C  C601  1  0.21605156  0.82741211  0.03454816  1
  H  H602  1  0.11697017  0.84923704  0.04818693  1
  C  C603  1  0.15745268  0.89473965  0.21247765  1
  H  H604  1  0.19880077  0.84247829  0.13643020  1
  H  H605  1  0.04517756  0.83015139  0.05180028  1
  C  C606  1  0.12618152  0.82455114  0.23198774  1
  C  C607  1  0.01833934  0.85322063  0.04089170  1
  C  C608  1  0.08242426  0.90567140  0.02739967  1
  C  C609  1  0.13464113  0.96171937  0.01130509  1
  H  H610  1  0.18491365  0.80881368  0.02261485  1
  C  C611  1  0.17711023  0.97535115  0.24458055  1
  C  C612  1  0.08717205  0.94803749  0.01398380  1
  C  C613  1  0.17522037  0.93619185  0.01503627  1
  H  H614  1  0.21171074  0.94986837  0.00912015  1
  N  N615  1  0.20943056  0.98723505  0.15619706  1
  H  H616  1  0.05622687  0.96746742  0.00848035  1
  H  H617  1  0.21157805  0.78534594  0.24389410  1
  H  H618  1  0.24167090  0.78538759  0.16631133  1
  C  C619  1  0.24935357  0.75184470  0.15975588  1
  N  N620  1  0.37376195  0.97340327  0.03274198  1
  C  C621  1  0.41233260  0.96965318  0.00380692  1
  H  H622  1  0.31954053  0.85116034  0.07909386  1
  H  H623  1  0.30965804  0.88850057  0.17216961  1
  C  C624  1  0.40652553  0.86695614  0.02163554  1
  C  C625  1  0.31047912  0.92075038  0.18432047  1
  H  H626  1  0.44288941  0.94791434  0.00811323  1
  Zn  Zn627  1  0.28476675  0.76163745  0.05069522  1
  N  N628  1  0.33127430  0.94897951  0.15435673  1
  C  C629  1  0.33241962  0.98383376  0.17678648  1
  H  H630  1  0.44558279  0.78724483  0.08393445  1
  C  C631  1  0.30050317  0.93923410  0.23124872  1
  H  H632  1  0.40429044  0.85339974  0.14324915  1
  C  C633  1  0.25457051  0.88521416  0.05204330  1
  H  H634  1  0.26003992  0.91759554  0.05925270  1
  N  N635  1  0.25863660  0.81710826  0.04775380  1
  C  C636  1  0.28468952  0.85134023  0.06042972  1
  N  N637  1  0.42674454  0.82925167  0.02457628  1
  N  N638  1  0.39262638  0.87766491  0.06790218  1
  N  N639  1  0.31611539  0.97771020  0.22599526  1
  Zn  Zn640  1  0.36506695  0.93399738  0.08680543  1
  C  C641  1  0.40726756  0.84940458  0.10072332  1
  C  C642  1  0.43000696  0.81763893  0.07346745  1
  H  H643  1  0.13231603  0.69324276  0.41530912  1
  N  N644  1  0.08070550  0.54933054  0.38627692  1
  N  N645  1  0.09768335  0.58522677  0.31881825  1
  C  C646  1  0.13663750  0.71448142  0.44865881  1
  C  C647  1  0.09461315  0.58710361  0.36837333  1
  H  H648  1  0.17144581  0.64521620  0.42203695  1
  Zn  Zn649  1  0.20323056  0.54927472  0.42827462  1
  C  C650  1  0.17232491  0.63388303  0.46260695  1
  C  C651  1  0.07237725  0.53789734  0.43841553  1
  C  C652  1  0.08745167  0.54696627  0.30432848  1
  H  H653  1  0.14366345  0.72038760  0.33972519  1
  C  C654  1  0.08082575  0.52271169  0.34611326  1
  H  H655  1  0.06225854  0.59878930  0.46700984  1
  N  N656  1  0.18060207  0.59723403  0.47851894  1
  H  H657  1  0.18724374  0.50899906  0.32223024  1
  H  H658  1  0.09938044  0.61528054  0.38991177  1
  H  H659  1  0.02510248  0.66437057  0.43175005  1
  C  C660  1  0.07195352  0.56670060  0.47837981  1
  H  H661  1  0.18100673  0.61442957  0.33557462  1
  C  C662  1  0.01800883  0.73328704  0.43185180  1
  C  C663  1  0.21430477  0.61964562  0.36028832  1
  C  C664  1  0.00514103  0.69227391  0.42555722  1
  N  N665  1  0.23447994  0.59463516  0.39307950  1
  C  C666  1  0.23281238  0.73176057  0.35272451  1
  H  H667  1  0.23717770  0.73554456  0.39251821  1
  C  C668  1  0.12136717  0.74517924  0.34829247  1
  H  H669  1  0.09281114  0.53595848  0.26494526  1
  C  C670  1  0.23688611  0.69270214  0.32977653  1
  N  N671  1  0.24130530  0.65545062  0.36139049  1
  C  C672  1  0.23578709  0.68610540  0.27693533  1
  H  H673  1  0.24232525  0.65537654  0.26384339  1
  H  H674  1  0.05286196  0.74561120  0.43696807  1
  C  C675  1  0.15010831  0.70299569  0.49812294  1
  H  H676  1  0.19737230  0.59940036  0.25367655  1
  C  C677  1  0.49389573  0.62416707  0.45866976  1
  C  C678  1  0.48179285  0.51875867  0.33869749  1
  H  H679  1  0.46874620  0.50752187  0.45410530  1
  H  H680  1  0.26472596  0.60675022  0.29415089  1
  H  H681  1  0.36321584  0.60302176  0.32291538  1
  C  C682  1  0.27533432  0.61306731  0.41163009  1
  H  H683  1  0.29150950  0.59974834  0.44525206  1
  C  C684  1  0.27833476  0.65402390  0.39334956  1
  H  H685  1  0.30703370  0.67765370  0.40124978  1
  C  C686  1  0.35891544  0.55464926  0.39587406  1
  N  N687  1  0.39121516  0.54654758  0.43300492  1
  C  C688  1  0.43634127  0.56739133  0.44604628  1
  C  C689  1  0.44591749  0.61111850  0.44737616  1
  C  C690  1  0.32735634  0.52112991  0.39044332  1
  H  H691  1  0.36304742  0.58288508  0.37437888  1
  C  C692  1  0.34407008  0.59074673  0.28955817  1
  H  H693  1  0.41927604  0.63242520  0.43334634  1
  H  H694  1  0.30296219  0.51441734  0.35833575  1
  C  C695  1  0.29483085  0.59319926  0.27495802  1
  C  C696  1  0.47349490  0.53978973  0.45475917  1
  H  H697  1  0.44271460  0.51958241  0.35421862  1
  C  C698  1  0.37733547  0.50973307  0.45359176  1
  N  N699  1  0.48629274  0.53807621  0.29543697  1
  H  H700  1  0.35544948  0.66494414  0.46738984  1
  N  N701  1  0.49968355  0.67471999  0.27797958  1
  C  C702  1  0.49707174  0.63352738  0.28367471  1
  H  H703  1  0.39799965  0.74020538  0.48420200  1
  Zn  Zn704  1  0.43827075  0.56382187  0.25093495  1
  N  N705  1  0.36827513  0.57299622  0.25061892  1
  N  N706  1  0.45928328  0.62084277  0.25729488  1
  H  H707  1  0.00769821  0.95778744  0.38999306  1
  H  H708  1  0.00919829  0.93982984  0.28612341  1
  N  N709  1  0.12488655  0.99392471  0.39758801  1
  C  C710  1  0.14407530  0.99594604  0.35218009  1
  C  C711  1  0.13108469  0.75684403  0.44100508  1
  N  N712  1  0.09514750  0.76149174  0.31141913  1
  C  C713  1  0.01655025  0.81787005  0.45690079  1
  C  C714  1  0.01529651  0.86189709  0.45705505  1
  N  N715  1  0.11419482  0.76927878  0.39224093  1
  H  H716  1  0.07392454  0.95282107  0.43554456  1
  C  C717  1  0.07180226  0.79457233  0.32878070  1
  C  C718  1  0.08495025  0.80096046  0.37983878  1
  H  H719  1  0.04534423  0.81339346  0.30420723  1
  H  H720  1  0.07792696  0.82370606  0.40819382  1
  N  N721  1  0.13276416  0.96078716  0.32509372  1
  H  H722  1  0.11185307  0.85966339  0.40660078  1
  H  H723  1  0.08990984  0.90938088  0.34652472  1
  C  C724  1  0.10133526  0.93959923  0.35454069  1
  C  C725  1  0.09578371  0.96073681  0.40028374  1
  C  C726  1  0.10458199  0.87632061  0.44213435  1
  N  N727  1  0.13784874  0.89643715  0.46625507  1
  Zn  Zn728  1  0.20762064  0.89853770  0.44301619  1
  N  N729  1  0.21077458  0.86523034  0.38286229  1
  C  C730  1  0.14828636  0.94797856  0.27438238  1
  H  H731  1  0.10302091  0.89229417  0.27486283  1
  H  H732  1  0.12330601  0.81785071  0.47683841  1
  N  N733  1  0.06048865  0.88220901  0.46826767  1
  C  C734  1  0.22258730  0.82576842  0.38386512  1
  N  N735  1  0.21960960  0.80839022  0.33454054  1
  C  C736  1  0.20290284  0.87550889  0.33378543  1
  C  C737  1  0.20845550  0.84044748  0.30442566  1
  H  H738  1  0.18872897  0.90562187  0.32205187  1
  H  H739  1  0.04736276  0.80128380  0.47214401  1
  C  C740  1  0.13159994  0.78560713  0.48118315  1
  H  H741  1  0.22754740  0.81293696  0.42238523  1
  C  C742  1  0.22818547  0.76692811  0.32003347  1
  C  C743  1  0.13341856  0.90924980  0.25762968  1
  N  N744  1  0.23148011  0.95735067  0.43771124  1
  H  H745  1  0.22195183  0.95806365  0.35597411  1
  C  C746  1  0.23388298  0.97243573  0.39087358  1
  H  H747  1  0.19861079  0.83703907  0.26536767  1
  C  C748  1  0.22048815  0.75965551  0.26805860  1
  H  H749  1  0.10335985  0.83380348  0.26425469  1
  C  C750  1  0.48916499  0.85030057  0.34602351  1
  C  C751  1  0.25269137  0.98359751  0.46931198  1
  C  C752  1  0.29531490  0.99797344  0.31509838  1
  H  H753  1  0.46135457  0.82077451  0.45845865  1
  H  H754  1  0.49953746  0.82775096  0.49767456  1
  N  N755  1  0.48825157  0.82409567  0.38581239  1
  C  C756  1  0.41422075  0.89921823  0.44142585  1
  N  N757  1  0.43960437  0.87330269  0.40713058  1
  H  H758  1  0.30745079  0.92454881  0.47903578  1
  H  H759  1  0.27750154  0.92886798  0.26336008  1
  C  C760  1  0.41665598  0.88499800  0.49242898  1
  N  N761  1  0.25318251  0.87703129  0.48934653  1
  C  C762  1  0.29639973  0.89560508  0.49861300  1
  H  H763  1  0.45656571  0.91206154  0.34136930  1
  C  C764  1  0.40351884  0.94037611  0.42850589  1
  C  C765  1  0.40125369  0.96922432  0.46693063  1
  H  H766  1  0.40884672  0.94877080  0.38927634  1
  C  C767  1  0.46304368  0.83802149  0.42367718  1
  C  C768  1  0.45899856  0.88204881  0.36025199  1
  H  H769  1  0.29835678  0.96693013  0.32616289  1
  C  C770  1  0.07509049  0.61521085  0.63911650  1
  N  N771  1  0.07153458  0.58111949  0.56680670  1
  C  C772  1  0.07969587  0.57588775  0.61607362  1
  N  N773  1  0.06240472  0.64172945  0.60327599  1
  C  C774  1  0.16883418  0.56265882  0.67378227  1
  C  C775  1  0.06039782  0.62284355  0.55886147  1
  H  H776  1  0.18565157  0.59296059  0.67551238  1
  H  H777  1  0.08121379  0.62344122  0.67982293  1
  H  H778  1  0.15633822  0.65083307  0.58282480  1
  C  C779  1  0.18637188  0.53149066  0.64032364  1
  N  N780  1  0.07683666  0.73153805  0.67556735  1
  H  H781  1  0.15964399  0.71959965  0.57895413  1
  Zn  Zn782  1  0.04544835  0.69845562  0.62056319  1
  H  H783  1  0.05193648  0.63920445  0.52416888  1
  H  H784  1  0.09322332  0.54766412  0.63267292  1
  C  C785  1  0.13450769  0.55194141  0.71047980  1
  C  C786  1  0.16524999  0.63668648  0.54517200  1
  H  H787  1  0.17638038  0.57012236  0.55485760  1
  C  C788  1  0.14586061  0.72852939  0.54118965  1
  N  N789  1  0.22658936  0.53890855  0.60435239  1
  C  C790  1  0.07455624  0.55085150  0.52776588  1
  C  C791  1  0.17470625  0.59680780  0.53019185  1
  C  C792  1  0.07913993  0.72135509  0.72262282  1
  H  H793  1  0.03404936  0.53624685  0.67309994  1
  C  C794  1  0.23232507  0.52137056  0.55830357  1
  N  N795  1  0.11282905  0.58633114  0.73668079  1
  H  H796  1  0.06626106  0.69243813  0.73703380  1
  H  H797  1  0.23598919  0.70291781  0.57446195  1
  H  H798  1  0.22753775  0.62548988  0.61235995  1
  C  C799  1  0.11419331  0.51244589  0.71399345  1
  C  C800  1  0.01509980  0.51091865  0.69160976  1
  C  C801  1  0.24402938  0.69246673  0.61272238  1
  C  C802  1  0.23844400  0.65418909  0.63408874  1
  H  H803  1  0.16754288  0.63448838  0.72801593  1
  C  C804  1  0.13318034  0.62449222  0.74212504  1
  C  C805  1  0.08145624  0.50927680  0.54036096  1
  H  H806  1  0.08968896  0.50301407  0.74385320  1
  N  N807  1  0.16191425  0.66018237  0.50266442  1
  H  H808  1  0.20019814  0.50242821  0.54566869  1
  H  H809  1  0.01982818  0.74991729  0.52387455  1
  H  H810  1  0.09094941  0.50094732  0.58104055  1
  N  N811  1  0.00897635  0.50456881  0.74153075  1
  H  H812  1  0.34446756  0.52009432  0.61949348  1
  N  N813  1  0.46259287  0.50488688  0.59309165  1
  N  N814  1  0.26083045  0.71714381  0.65023964  1
  N  N815  1  0.25496836  0.65531312  0.68267599  1
  C  C816  1  0.26698906  0.69330999  0.69302931  1
  C  C817  1  0.48462355  0.62660548  0.69761832  1
  H  H818  1  0.28815488  0.52332721  0.68076517  1
  H  H819  1  0.27474601  0.58205226  0.64538841  1
  C  C820  1  0.26979429  0.52240238  0.71708592  1
  C  C821  1  0.26551332  0.56354941  0.61187289  1
  H  H822  1  0.46472017  0.64606417  0.67332849  1
  C  C823  1  0.27511677  0.53754303  0.53706412  1
  C  C824  1  0.44855389  0.54101504  0.57050122  1
  N  N825  1  0.29395433  0.56350463  0.57121401  1
  N  N826  1  0.40183677  0.54703295  0.57487433  1
  N  N827  1  0.37531484  0.65260725  0.54372302  1
  C  C828  1  0.39773823  0.67344657  0.57957864  1
  N  N829  1  0.40627788  0.71296203  0.55866867  1
  H  H830  1  0.47222618  0.56460846  0.55022494  1
  H  H831  1  0.42946746  0.70411643  0.65097998  1
  H  H832  1  0.40658762  0.66470667  0.61917364  1
  Zn  Zn833  1  0.35560862  0.59734809  0.55866140  1
  H  H834  1  0.38082996  0.61242081  0.68550320  1
  C  C835  1  0.37589938  0.61539699  0.72710171  1
  C  C836  1  0.44951179  0.72900409  0.63453503  1
  N  N837  1  0.37374107  0.71279630  0.71349038  1
  C  C838  1  0.43614454  0.74239274  0.58618925  1
  H  H839  1  0.28550832  0.70252224  0.72959504  1
  Zn  Zn840  1  0.27376777  0.60891154  0.73151971  1
  N  N841  1  0.25876288  0.55198447  0.74949816  1
  C  C842  1  0.48260364  0.70509417  0.74369563  1
  C  C843  1  0.38465020  0.51587547  0.60350626  1
  H  H844  1  0.44237462  0.70099353  0.74122218  1
  C  C845  1  0.39191248  0.71464981  0.51074861  1
  C  C846  1  0.37038912  0.67596712  0.50209390  1
  C  C847  1  0.48860875  0.74447586  0.66217162  1
  C  C848  1  0.46524822  0.61152133  0.74344308  1
  H  H849  1  0.29306885  0.53253003  0.50088983  1
  H  H850  1  0.19917681  0.76738626  0.60640736  1
  C  C851  1  0.09586867  0.76963121  0.66942224  1
  H  H852  1  0.10093052  0.78552992  0.63300582  1
  C  C853  1  0.02097789  0.97687516  0.65159853  1
  C  C854  1  0.11174864  0.78206159  0.71715098  1
  C  C855  1  0.13936300  0.77010444  0.53067543  1
  H  H856  1  0.21743082  0.84348828  0.65092123  1
  N  N857  1  0.14728834  0.80322676  0.56820341  1
  N  N858  1  0.09445395  0.95308913  0.64397760  1
  C  C859  1  0.13007994  0.84238843  0.57086276  1
  N  N860  1  0.15396054  0.86123130  0.60753944  1
  C  C861  1  0.18773119  0.83458122  0.62526684  1
  Zn  Zn862  1  0.15115400  0.92218702  0.62873414  1
  N  N863  1  0.21767551  0.94775090  0.63191305  1
  C  C864  1  0.09234955  0.97129373  0.68914832  1
  C  C865  1  0.23105654  0.98078976  0.65407992  1
  C  C866  1  0.18074337  0.79614172  0.60318337  1
  C  C867  1  0.05244587  0.95748714  0.61857233  1
  H  H868  1  0.10285026  0.85673981  0.54368728  1
  H  H869  1  0.04720690  0.94559902  0.57857416  1
  H  H870  1  0.21604351  0.82176171  0.52321988  1
  N  N871  1  0.04529601  0.98500841  0.69493621  1
  H  H872  1  0.03846556  0.91446057  0.53022997  1
  H  H873  1  0.14032676  0.93921196  0.52811700  1
  H  H874  1  0.12006575  0.96945537  0.71867386  1
  H  H875  1  0.12666678  0.81170982  0.72981505  1
  C  C876  1  0.24648340  0.84518896  0.51912922  1
  C  C877  1  0.00636050  0.84808058  0.73672973  1
  H  H878  1  0.00437447  0.90372660  0.66093803  1
  C  C879  1  0.06782498  0.90883805  0.50526378  1
  H  H880  1  0.01477321  0.88104878  0.73008805  1
  C  C881  1  0.11787417  0.91594285  0.50610913  1
  H  H882  1  0.35430569  0.80800085  0.74965848  1
  C  C883  1  0.42748603  0.99470350  0.74755323  1
  C  C884  1  0.27582013  0.77880798  0.59779141  1
  C  C885  1  0.25617357  0.93057067  0.60778336  1
  H  H886  1  0.25289292  0.90240943  0.58417549  1
  H  H887  1  0.25537858  0.97652223  0.51002065  1
  H  H888  1  0.41282423  0.97944527  0.54440082  1
  H  H889  1  0.27133164  0.76023554  0.56326770  1
  H  H890  1  0.45775562  0.99803927  0.71988813  1
  C  C891  1  0.41588453  0.91517615  0.52931106  1
  C  C892  1  0.41651086  0.85683378  0.59278119  1
  C  C893  1  0.46078684  0.77464467  0.56375912  1
  C  C894  1  0.41912704  0.91831894  0.62623626  1
  C  C895  1  0.37038558  0.75157927  0.69994733  1
  H  H896  1  0.29347076  0.91164168  0.69171333  1
  H  H897  1  0.45009268  0.78748768  0.52872020  1
  H  H898  1  0.34846747  0.88096479  0.56364825  1
  H  H899  1  0.44046073  0.80599815  0.71485732  1
  N  N900  1  0.29035652  0.85363587  0.72820888  1
  N  N901  1  0.28569355  0.84387852  0.55140402  1
  N  N902  1  0.28039106  0.98766464  0.64615128  1
  C  C903  1  0.29201211  0.89560822  0.72756821  1
  C  C904  1  0.36230794  0.77520247  0.74336693  1
  C  C905  1  0.26906634  0.76149093  0.64629806  1
  H  H906  1  0.42593278  0.95148757  0.63172448  1
  C  C907  1  0.29319952  0.82673517  0.68395085  1
  H  H908  1  0.33270191  0.95328760  0.60000177  1
  C  C909  1  0.41300801  0.85516815  0.64541872  1
  C  C910  1  0.29175370  0.81907916  0.59654238  1
  C  C911  1  0.27348889  0.78683660  0.68891094  1
  C  C912  1  0.30324928  0.84548595  0.63711259  1
  C  C913  1  0.29610853  0.95625960  0.61656472  1
  H  H914  1  0.37147327  0.76062163  0.65924990  1
  C  C915  1  0.40987467  0.95606023  0.51703033  1
  H  H916  1  0.26912156  0.77308566  0.72625368  1
  Zn  Zn917  1  0.42904282  0.90564170  0.73617544  1
  H  H918  1  0.41002620  0.82746382  0.67059591  1
  H  H919  1  0.32227495  0.87451568  0.63255183  1
  C  C920  1  0.31563125  0.87528198  0.54049956  1
  N  N921  1  0.41648917  0.89668932  0.58148032  1
  H  H922  1  0.41835949  0.83444579  0.56421619  1
  N  N923  1  0.41827210  0.89332655  0.66527281  1
  H  H924  1  0.42070255  0.85287893  0.50357765  1
  C  C925  1  0.20496449  0.71827673  0.95418011  1
  C  C926  1  0.05671177  0.55160287  0.90807421  1
  N  N927  1  0.19219261  0.68215541  0.97287623  1
  H  H928  1  0.06399076  0.70431654  0.82398832  1
  C  C929  1  0.04955611  0.68193647  0.91833564  1
  H  H930  1  0.06667437  0.66617830  0.88835135  1
  H  H931  1  0.03551423  0.63770340  0.80513945  1
  C  C932  1  0.06415922  0.62649722  0.78074067  1
  N  N933  1  0.04845569  0.72294230  0.92085112  1
  N  N934  1  0.02397523  0.53943163  0.94271825  1
  N  N935  1  0.10522576  0.64792739  0.77114727  1
  C  C936  1  0.08171457  0.73289134  0.83581876  1
  H  H937  1  0.18773907  0.52411908  0.94964365  1
  H  H938  1  0.05299955  0.60451850  0.85278962  1
  C  C939  1  0.03881044  0.58842083  0.88650556  1
  C  C940  1  0.02502258  0.66794344  0.96173745  1
  C  C941  1  0.02617238  0.73541132  0.96461715  1
  H  H942  1  0.08751287  0.53343387  0.89664229  1
  C  C943  1  0.22423693  0.65391990  0.95694169  1
  H  H944  1  0.09962259  0.58390108  0.97690482  1
  H  H945  1  0.22474472  0.62170090  0.97240348  1
  N  N946  1  0.24516949  0.71358701  0.92354965  1
  C  C947  1  0.06955644  0.58799288  0.76046427  1
  C  C948  1  0.07577243  0.74862075  0.88580325  1
  H  H949  1  0.01650492  0.63656370  0.97299230  1
  C  C950  1  0.20547653  0.53725559  0.98195060  1
  H  H951  1  0.04622257  0.56055525  0.76240593  1
  H  H952  1  0.18918537  0.74929465  0.96194412  1
  N  N953  1  0.01265048  0.70089140  0.98774140  1
  H  H954  1  0.21899931  0.55979169  0.81684845  1
  C  C955  1  0.23156815  0.53785834  0.78869926  1
  C  C956  1  0.02475878  0.50024948  0.96962300  1
  N  N957  1  0.25388630  0.54264102  0.98598918  1
  C  C958  1  0.49994573  0.67384904  0.99186983  1
  C  C959  1  0.25840986  0.67406226  0.92621655  1
  H  H960  1  0.29468892  0.66445051  0.91501183  1
  H  H961  1  0.30613434  0.70035508  0.84827081  1
  C  C962  1  0.40722187  0.56231134  0.95327528  1
  H  H963  1  0.38000275  0.61747332  0.91375718  1
  C  C964  1  0.38937282  0.60257867  0.94943118  1
  H  H965  1  0.40421146  0.69049437  0.92816896  1
  C  C966  1  0.37963211  0.69447245  0.96104534  1
  N  N967  1  0.40802635  0.54045580  0.90644466  1
  H  H968  1  0.32066827  0.61468868  0.83544958  1
  C  C969  1  0.40069494  0.61572253  0.80827082  1
  H  H970  1  0.42563400  0.61476950  0.83938765  1
  C  C971  1  0.34898216  0.61731686  0.80624663  1
  H  H972  1  0.36653077  0.68263548  0.78503383  1
  C  C973  1  0.37264751  0.54928212  0.87214971  1
  H  H974  1  0.34993514  0.57528900  0.87209567  1
  C  C975  1  0.30306513  0.73215311  0.85652798  1
  N  N976  1  0.48646579  0.69611723  0.95004869  1
  C  C977  1  0.35618800  0.73129701  0.97434316  1
  H  H978  1  0.35610021  0.51813814  0.79773822  1
  C  C979  1  0.37746511  0.52143707  0.83271321  1
  N  N980  1  0.36805471  0.66573935  0.99557865  1
  C  C981  1  0.46930553  0.73891813  0.94852850  1
  C  C982  1  0.43369121  0.50746914  0.88756840  1
  C  C983  1  0.48927070  0.67075803  0.91002478  1
  H  H984  1  0.48346822  0.67602115  0.87027062  1
  C  C985  1  0.42415078  0.54631427  0.99970134  1
  C  C986  1  0.38386947  0.62386461  0.99554841  1
  H  H987  1  0.47072346  0.56727736  0.80491025  1
  N  N988  1  0.41514959  0.61566195  0.75900559  1
  N  N989  1  0.33662038  0.61570696  0.75554869  1
  C  C990  1  0.36687786  0.71022457  0.76348641  1
  H  H991  1  0.48880322  0.73358445  0.86909933  1
  C  C992  1  0.48821280  0.58119090  0.77294782  1
  C  C993  1  0.27415468  0.74501893  0.89831890  1
  N  N994  1  0.35615381  0.74817844  0.78090165  1
  C  C995  1  0.00839950  0.84734870  0.87698051  1
  H  H996  1  0.00102930  0.77652376  0.83095721  1
  C  C997  1  0.00691777  0.82973497  0.78408475  1
  N  N998  1  0.01146998  0.99768072  0.92708266  1
  C  C999  1  0.11025101  0.75651641  0.80431657  1
  C  C1000  1  0.02849283  0.89692135  0.82167522  1
  C  C1001  1  0.10102505  0.78267484  0.90439641  1
  H  H1002  1  0.09830832  0.79044675  0.94452347  1
  C  C1003  1  0.14177486  0.78906003  0.82284671  1
  H  H1004  1  0.17132710  0.80406424  0.80037799  1
  C  C1005  1  0.19081560  0.96029827  0.81470368  1
  C  C1006  1  0.14514401  0.94326400  0.82426198  1
  C  C1007  1  0.13535042  0.80115903  0.87177750  1
  H  H1008  1  0.09941138  0.87038468  0.92279656  1
  N  N1009  1  0.16005250  0.83918394  0.88897132  1
  Zn  Zn1010  1  0.05355249  0.96607542  0.88078220  1
  C  C1011  1  0.13628705  0.86989402  0.91138283  1
  C  C1012  1  0.20538218  0.85191994  0.87623232  1
  C  C1013  1  0.16959226  0.90195509  0.91409805  1
  N  N1014  1  0.21110371  0.89007181  0.89223581  1
  N  N1015  1  0.12244939  0.97065883  0.85392827  1
  H  H1016  1  0.13241639  0.91471567  0.80898149  1
  H  H1017  1  0.16606892  0.93214063  0.92828569  1
  H  H1018  1  0.23076150  0.83303658  0.85586471  1
  N  N1019  1  0.03270331  0.91089803  0.86806026  1
  H  H1020  1  0.22143228  0.94842972  0.79390163  1
  H  H1021  1  0.03575425  0.91106103  0.78471163  1
  N  N1022  1  0.19490813  0.99608742  0.83868753  1
  N  N1023  1  0.01436051  0.85681370  0.82677956  1
  H  H1024  1  0.02636913  0.76667656  0.97858824  1
  H  H1025  1  0.02195508  0.89054853  0.94475091  1
  C  C1026  1  0.02176308  0.88203332  0.90332229  1
  N  N1027  1  0.10374803  0.75241164  0.75109310  1
  C  C1028  1  0.49921988  0.95685381  0.87852011  1
  C  C1029  1  0.44670309  0.81506347  0.75633355  1
  N  N1030  1  0.40655538  0.95898192  0.75769305  1
  H  H1031  1  0.34593372  0.93834330  0.80060229  1
  H  H1032  1  0.25855482  0.79362326  0.95081383  1
  N  N1033  1  0.32258550  0.91055817  0.94857031  1
  C  C1034  1  0.45633591  0.79411836  0.89161463  1
  H  H1035  1  0.35383432  0.75960958  0.95216989  1
  N  N1036  1  0.28692212  0.91049326  0.77449032  1
  C  C1037  1  0.27744091  0.78496336  0.91757248  1
  H  H1038  1  0.45312671  0.93094325  0.94097324  1
  C  C1039  1  0.36816698  0.96404784  0.78709370  1
  H  H1040  1  0.37621403  0.94328635  0.90590275  1
  C  C1041  1  0.47179126  0.75351331  0.89835857  1
  H  H1042  1  0.36636354  0.81900242  0.83658618  1
  H  H1043  1  0.27992280  0.97852406  0.78803634  1
  N  N1044  1  0.40510657  0.99556594  0.96168505  1
  C  C1045  1  0.44122463  0.80345979  0.98004781  1
  C  C1046  1  0.35607199  0.91500231  0.91209314  1
  H  H1047  1  0.27841968  0.88117787  0.84674575  1
  N  N1048  1  0.32423606  0.85191272  0.90885016  1
  C  C1049  1  0.44072098  0.99562561  0.92103598  1
  C  C1050  1  0.46321525  0.95744692  0.91620269  1
  C  C1051  1  0.33467689  0.75950979  0.83118318  1
  C  C1052  1  0.45283758  0.76209923  0.98998110  1
  N  N1053  1  0.44239887  0.85205913  0.77605358  1
  N  N1054  1  0.45522626  0.81178247  0.84042145  1
  H  H1055  1  0.44799242  0.87920836  0.85024629  1
  H  H1056  1  0.45484079  0.75689667  0.80022555  1
  C  C1057  1  0.31210665  0.81047190  0.89372403  1
  H  H1058  1  0.32136724  0.93749941  0.96919092  1
  H  H1059  1  0.42987641  0.85186273  0.92350953  1
  H  H1060  1  0.28575339  0.81123553  0.79047916  1
  C  C1061  1  0.28474789  0.84289499  0.77741912  1
  C  C1062  1  0.45311551  0.78857409  0.79832949  1
  H  H1063  1  0.36904559  0.86868943  0.84700801  1
  C  C1064  1  0.34078622  0.79748919  0.85285107  1
  C  C1065  1  0.35603191  0.87706623  0.88621635  1
  C  C1066  1  0.30240145  0.87383307  0.94733268  1
  H  H1067  1  0.27255715  0.86319587  0.97161476  1
  C  C1068  1  0.44022784  0.81951299  0.93216255  1
  C  C1069  1  0.44938639  0.85183096  0.82599108  1
  H  H1070  1  0.40112621  0.88362658  0.98592480  1
  C  C1071  1  0.28254662  0.87803963  0.80529110  1
  H  H1072  1  0.60896539  0.06303068  0.09127402  1
  C  C1073  1  0.56928624  0.06164364  0.10278538  1
  C  C1074  1  0.55236577  0.08797545  0.13995180  1
  C  C1075  1  0.53488838  0.03714611  0.07751293  1
  H  H1076  1  0.67552795  0.06592199  0.11197406  1
  N  N1077  1  0.68387534  0.12595054  0.03673958  1
  C  C1078  1  0.68619099  0.08591109  0.02416580  1
  C  C1079  1  0.70928502  0.04826525  0.11710480  1
  N  N1080  1  0.58324416  0.11698830  0.16907363  1
  C  C1081  1  0.58114186  0.15767757  0.16077417  1
  H  H1082  1  0.56213018  0.16945627  0.12658086  1
  C  C1083  1  0.61208022  0.17656593  0.19570593  1
  H  H1084  1  0.71966728  0.06771274  0.02694120  1
  C  C1085  1  0.72692625  0.10472610  0.19637305  1
  C  C1086  1  0.61188821  0.11110437  0.21003971  1
  C  C1087  1  0.63548105  0.13715295  0.02751402  1
  H  H1088  1  0.67293372  0.20299924  0.06459660  1
  H  H1089  1  0.70362878  0.07542781  0.20201009  1
  N  N1090  1  0.72868100  0.14036298  0.21953231  1
  N  N1091  1  0.51525328  0.16287254  0.00903975  1
  H  H1092  1  0.62356918  0.03806475  0.15590997  1
  H  H1093  1  0.61857664  0.20934230  0.20277087  1
  H  H1094  1  0.62139834  0.16929570  0.03360764  1
  N  N1095  1  0.63063401  0.14718275  0.22384388  1
  C  C1096  1  0.71080867  0.19285834  0.05848791  1
  H  H1097  1  0.62271000  0.08077340  0.22395551  1
  C  C1098  1  0.64048724  0.07381366  0.00554902  1
  N  N1099  1  0.61224760  0.10722857  0.00534675  1
  H  H1100  1  0.69032459  0.24162699  0.15263875  1
  C  C1101  1  0.62474818  0.00475940  0.15603520  1
  N  N1102  1  0.55286311  0.01304211  0.03546350  1
  C  C1103  1  0.50520252  0.22619387  0.03943801  1
  C  C1104  1  0.72386359  0.15194391  0.04727099  1
  C  C1105  1  0.51149894  0.24847920  0.14416691  1
  C  C1106  1  0.50394089  0.08884015  0.15582566  1
  C  C1107  1  0.71101990  0.00700947  0.13031588  1
  H  H1108  1  0.53742387  0.04986405  0.22261740  1
  C  C1109  1  0.50337406  0.22150505  0.23109115  1
  C  C1110  1  0.74882719  0.22075254  0.06181113  1
  N  N1111  1  0.75167786  0.10780369  0.15191753  1
  N  N1112  1  0.99835569  0.06596644  0.19622721  1
  C  C1113  1  0.79990137  0.00856404  0.13487614  1
  C  C1114  1  0.75449263  0.07028611  0.12182711  1
  C  C1115  1  0.75793541  0.16505120  0.19250871  1
  C  C1116  1  0.96816483  0.09579259  0.17696591  1
  H  H1117  1  0.75820561  0.19873494  0.20370181  1
  H  H1118  1  0.85341669  0.20402774  0.12655143  1
  C  C1119  1  0.77046513  0.13767698  0.03681262  1
  H  H1120  1  0.77909254  0.10509279  0.03241060  1
  H  H1121  1  0.89868881  0.03805040  0.13907817  1
  C  C1122  1  0.77372145  0.14386655  0.14892664  1
  H  H1123  1  0.79573072  0.15431415  0.11706457  1
  C  C1124  1  0.80014208  0.05034903  0.11926666  1
  H  H1125  1  0.83206164  0.06992230  0.11999061  1
  H  H1126  1  0.86409112  0.15064750  0.18071837  1
  H  H1127  1  0.81426443  0.09451848  0.19913162  1
  C  C1128  1  0.88593336  0.16061184  0.21274208  1
  C  C1129  1  0.87120240  0.11294111  0.03954841  1
  C  C1130  1  0.80781407  0.16788696  0.03976169  1
  N  N1131  1  0.85802314  0.15361060  0.04125904  1
  C  C1132  1  0.91237377  0.19788123  0.21273912  1
  C  C1133  1  0.89769836  0.17781049  0.03782695  1
  C  C1134  1  0.79613931  0.20930247  0.04879458  1
  H  H1135  1  0.82331662  0.23412283  0.04929937  1
  N  N1136  1  0.90523485  0.22967543  0.17546496  1
  C  C1137  1  0.87487975  0.23101046  0.13573064  1
  H  H1138  1  0.89671918  0.21143695  0.03365753  1
  H  H1139  1  0.93723494  0.08715519  0.15480149  1
  N  N1140  1  0.91769737  0.11143371  0.03855853  1
  H  H1141  1  0.84646187  0.08740471  0.03419444  1
  C  C1142  1  0.93569813  0.15088759  0.03750740  1
  C  C1143  1  0.88659336  0.01253119  0.16352179  1
  Zn  Zn1144  1  0.98152946  0.00716663  0.20283753  1
  H  H1145  1  0.97473849  0.15907264  0.03394904  1
  C  C1146  1  0.83029564  0.08004697  0.23212330  1
  H  H1147  1  0.78721789  0.02378453  0.24723273  1
  C  C1148  1  0.81879577  0.23910455  0.24834214  1
  H  H1149  1  0.85625706  0.22789987  0.24329993  1
  H  H1150  1  0.97604644  0.16472991  0.18155700  1
  C  C1151  1  0.98622362  0.13393954  0.19028489  1
  H  H1152  1  0.97332098  0.05073112  0.02220167  1
  H  H1153  1  0.50618371  0.25712439  0.04931970  1
  C  C1154  1  0.71122122  0.26457697  0.13132891  1
  C  C1155  1  0.52103707  0.25177487  0.19662275  1
  H  H1156  1  0.51680470  0.27432251  0.11879216  1
  H  H1157  1  0.61049087  0.28175756  0.15849782  1
  C  C1158  1  0.60167372  0.28763104  0.19893123  1
  Zn  Zn1159  1  0.69704243  0.31523535  0.22319972  1
  N  N1160  1  0.63025687  0.30022458  0.23515824  1
  N  N1161  1  0.55745427  0.27609386  0.22074086  1
  N  N1162  1  0.72141417  0.30107318  0.15101359  1
  C  C1163  1  0.74864841  0.32101031  0.11755239  1
  N  N1164  1  0.73889099  0.25964996  0.08766139  1
  N  N1165  1  0.74820584  0.27156345  0.24032382  1
  N  N1166  1  0.95830105  0.44380542  0.06981337  1
  N  N1167  1  0.92007347  0.40525585  0.12553318  1
  H  H1168  1  0.78690633  0.29790214  0.04625185  1
  H  H1169  1  0.75979621  0.35347541  0.12503973  1
  C  C1170  1  0.91615284  0.44474459  0.14206786  1
  C  C1171  1  0.78893649  0.26166717  0.21514861  1
  C  C1172  1  0.94306806  0.40430522  0.08377774  1
  C  C1173  1  0.99090682  0.49414361  0.00820098  1
  H  H1174  1  0.94278283  0.28153286  0.21623099  1
  C  C1175  1  0.86982457  0.27171996  0.12170898  1
  H  H1176  1  0.95602665  0.49988008  0.10860226  1
  N  N1177  1  0.88674123  0.35701842  0.23532899  1
  H  H1178  1  0.84603281  0.28575429  0.09223047  1
  C  C1179  1  0.92098622  0.27006373  0.18446114  1
  C  C1180  1  0.94344054  0.46874410  0.10759455  1
  C  C1181  1  0.98928699  0.45394596  0.02888923  1
  N  N1182  1  0.89926053  0.29364263  0.15235173  1
  H  H1183  1  0.95497806  0.37805239  0.06047808  1
  Zn  Zn1184  1  0.90041429  0.35455192  0.16472330  1
  H  H1185  1  0.79768514  0.27632575  0.17590255  1
  H  H1186  1  0.89643276  0.45378164  0.17723050  1
  C  C1187  1  0.76203990  0.29483692  0.07749185  1
  H  H1188  1  0.67678869  0.13719040  0.39745020  1
  N  N1189  1  0.70804819  0.07349311  0.39673584  1
  H  H1190  1  0.63959029  0.10535419  0.44667245  1
  C  C1191  1  0.70199347  0.06491470  0.45165676  1
  C  C1192  1  0.69356116  0.11120872  0.37693040  1
  N  N1193  1  0.70324552  0.10938434  0.32900036  1
  C  C1194  1  0.70515945  0.19941731  0.37196255  1
  N  N1195  1  0.67979264  0.20136421  0.32991174  1
  C  C1196  1  0.66366055  0.08892298  0.47101150  1
  N  N1197  1  0.56038679  0.09563804  0.42354384  1
  Zn  Zn1198  1  0.68486429  0.15387501  0.27981723  1
  C  C1199  1  0.72046311  0.20194388  0.47895826  1
  H  H1200  1  0.57158488  0.21859478  0.45593571  1
  C  C1201  1  0.56803881  0.13481315  0.41007899  1
  H  H1202  1  0.60247352  0.14855723  0.39507311  1
  H  H1203  1  0.60201483  0.06886678  0.36317072  1
  N  N1204  1  0.56530611  0.06910163  0.29286306  1
  C  C1205  1  0.59313187  0.05287811  0.32720066  1
  N  N1206  1  0.61327687  0.01775565  0.30814213  1
  C  C1207  1  0.72518107  0.07436447  0.31582756  1
  N  N1208  1  0.68870464  0.23112315  0.40316329  1
  C  C1209  1  0.64714591  0.23177178  0.33364804  1
  N  N1210  1  0.52490165  0.15404859  0.40820558  1
  C  C1211  1  0.54447564  0.22743536  0.42763910  1
  C  C1212  1  0.70590731  0.23787895  0.45491661  1
  H  H1213  1  0.62017358  0.23415660  0.30149288  1
  H  H1214  1  0.71437026  0.17325963  0.46012861  1
  C  C1215  1  0.56147436  0.00809461  0.46742885  1
  H  H1216  1  0.56260834  0.00012082  0.38473547  1
  H  H1217  1  0.73483286  0.17900624  0.38261096  1
  C  C1218  1  0.72674847  0.05004500  0.36034491  1
  C  C1219  1  0.51666873  0.19792947  0.40234629  1
  C  C1220  1  0.56284369  0.04422966  0.25302096  1
  C  C1221  1  0.73340086  0.04342747  0.48188875  1
  H  H1222  1  0.63237131  0.01248267  0.40833752  1
  C  C1223  1  0.59317292  0.01135169  0.26139025  1
  C  C1224  1  0.51313395  0.08881812  0.42491242  1
  H  H1225  1  0.66121435  0.00770041  0.48918346  1
  H  H1226  1  0.57890367  0.03788101  0.46977302  1
  H  H1227  1  0.50477595  0.22347744  0.27308139  1
  H  H1228  1  0.54544719  0.13256454  0.26414070  1
  H  H1229  1  0.73739833  0.06592505  0.27852314  1
  H  H1230  1  0.74114680  0.01917995  0.36912554  1
  C  C1231  1  0.50744843  0.13435163  0.27568065  1
  H  H1232  1  0.56046195  0.10618585  0.49923462  1
  H  H1233  1  0.76401771  0.03041494  0.46322364  1
  H  H1234  1  0.81896381  0.14658049  0.31849643  1
  N  N1235  1  0.84557854  0.04184059  0.29938677  1
  H  H1236  1  0.90782177  0.13312190  0.33593704  1
  C  C1237  1  0.91220458  0.14992008  0.30057754  1
  H  H1238  1  0.90155334  0.08066223  0.33300340  1
  C  C1239  1  0.93240906  0.18988791  0.29961679  1
  N  N1240  1  0.84070868  0.12037666  0.41147460  1
  C  C1241  1  0.82090000  0.08980563  0.38414774  1
  N  N1242  1  0.83911871  0.05451061  0.40176750  1
  H  H1243  1  0.80205503  0.09524245  0.34744856  1
  C  C1244  1  0.83072065  0.16338150  0.39886819  1
  C  C1245  1  0.81842438  0.17152318  0.34702660  1
  C  C1246  1  0.80776826  0.21237994  0.33625102  1
  C  C1247  1  0.83561907  0.19441187  0.43528500  1
  C  C1248  1  0.86311158  0.06043436  0.44404821  1
  C  C1249  1  0.86396342  0.10323632  0.45136172  1
  H  H1250  1  0.84383380  0.18919919  0.47392807  1
  N  N1251  1  0.94563603  0.20747126  0.34799431  1
  C  C1252  1  0.87505397  0.07293194  0.30269056  1
  N  N1253  1  0.79157144  0.23320463  0.28856788  1
  C  C1254  1  0.82413285  0.23523923  0.41956862  1
  H  H1255  1  0.94632682  0.15347399  0.38996292  1
  H  H1256  1  0.88341316  0.03668028  0.46589882  1
  C  C1257  1  0.95086005  0.18615687  0.38994494  1
  H  H1258  1  0.96581531  0.06440678  0.30036923  1
  C  C1259  1  0.97525609  0.03183018  0.31126901  1
  C  C1260  1  0.96949081  0.01522511  0.45336012  1
  C  C1261  1  0.80729788  0.24547561  0.37109701  1
  C  C1262  1  0.96443817  0.21321795  0.42923782  1
  C  C1263  1  0.93761245  0.21275992  0.25515843  1
  N  N1264  1  0.86553009  0.09722151  0.26125154  1
  C  C1265  1  0.88954381  0.13602662  0.25630812  1
  C  C1266  1  0.98577214  0.03672580  0.40963693  1
  H  H1267  1  0.88383189  0.12212248  0.47779433  1
  C  C1268  1  0.81781969  0.04396068  0.25831812  1
  H  H1269  1  0.97989472  0.20672490  0.46629792  1
  H  H1270  1  0.95915823  0.24060892  0.25740332  1
  N  N1271  1  0.98474554  0.01565656  0.36023072  1
  N  N1272  1  0.98266888  0.00223308  0.28016148  1
  H  H1273  1  0.76799208  0.13628915  0.48615964  1
  C  C1274  1  0.95010553  0.24895894  0.36187417  1
  C  C1275  1  0.62967168  0.49972924  0.43596661  1
  H  H1276  1  0.66637359  0.49632226  0.41988718  1
  C  C1277  1  0.65388265  0.25181953  0.38031730  1
  H  H1278  1  0.72297899  0.25288567  0.31866286  1
  C  C1279  1  0.71150788  0.48838627  0.33495236  1
  H  H1280  1  0.63571614  0.27728822  0.40063980  1
  N  N1281  1  0.60188661  0.46944236  0.45655241  1
  H  H1282  1  0.53243538  0.27494638  0.29661559  1
  C  C1283  1  0.57588510  0.33951846  0.42606863  1
  H  H1284  1  0.56386086  0.35270475  0.39081855  1
  Zn  Zn1285  1  0.62820228  0.41598137  0.46286252  1
  N  N1286  1  0.60393642  0.35614422  0.46090094  1
  N  N1287  1  0.56517270  0.29947712  0.43972420  1
  N  N1288  1  0.69948644  0.43252486  0.46415315  1
  H  H1289  1  0.62204816  0.31226607  0.31608957  1
  H  H1290  1  0.70247832  0.30343635  0.45936406  1
  C  C1291  1  0.53742162  0.26893060  0.41323341  1
  C  C1292  1  0.62665645  0.46736876  0.32002679  1
  C  C1293  1  0.67686323  0.45836315  0.32343574  1
  C  C1294  1  0.73188685  0.41794159  0.43396752  1
  C  C1295  1  0.70855302  0.27679367  0.48108748  1
  N  N1296  1  0.69668235  0.42152922  0.30168277  1
  H  H1297  1  0.72892285  0.38983082  0.40789736  1
  H  H1298  1  0.59941145  0.44521969  0.30270866  1
  C  C1299  1  0.60646582  0.30022247  0.28033965  1
  C  C1300  1  0.56135972  0.28383926  0.27162192  1
  C  C1301  1  0.55808640  0.48211644  0.46760136  1
  C  C1302  1  0.58845102  0.29400085  0.48400849  1
  C  C1303  1  0.67456222  0.38754227  0.28015004  1
  C  C1304  1  0.74482045  0.41279851  0.30055323  1
  H  H1305  1  0.74920513  0.48207158  0.33745726  1
  C  C1306  1  0.74789913  0.25293399  0.28423261  1
  H  H1307  1  0.54096354  0.48704028  0.38464827  1
  C  C1308  1  0.71914844  0.46346873  0.49169522  1
  H  H1309  1  0.73528279  0.35335585  0.49548130  1
  H  H1310  1  0.52804318  0.46354157  0.48083225  1
  H  H1311  1  0.58490162  0.26125070  0.49941377  1
  C  C1312  1  0.61540407  0.32875770  0.49621666  1
  H  H1313  1  0.63376540  0.38590514  0.27104253  1
  N  N1314  1  0.70802725  0.36103311  0.26672082  1
  H  H1315  1  0.93668160  0.49183812  0.47663835  1
  H  H1316  1  0.81316356  0.37043775  0.47866636  1
  H  H1317  1  0.93504504  0.44414872  0.32015409  1
  H  H1318  1  0.94639534  0.48336715  0.28388364  1
  C  C1319  1  0.97651545  0.46752396  0.26429266  1
  N  N1320  1  0.96499995  0.25155224  0.40880791  1
  C  C1321  1  0.99303809  0.42818469  0.27211270  1
  C  C1322  1  0.89632159  0.38778777  0.26483494  1
  H  H1323  1  0.97977655  0.40315599  0.29671993  1
  H  H1324  1  0.94112485  0.27341295  0.33517740  1
  C  C1325  1  0.85755381  0.34156552  0.31330501  1
  H  H1326  1  0.88525940  0.43305781  0.46482370  1
  C  C1327  1  0.81914124  0.33725578  0.47554067  1
  C  C1328  1  0.81776039  0.44105069  0.40998231  1
  C  C1329  1  0.88812271  0.47832842  0.37531388  1
  C  C1330  1  0.81101910  0.31046378  0.43595418  1
  N  N1331  1  0.95555776  0.35096378  0.46857640  1
  C  C1332  1  0.87189387  0.41086790  0.35096447  1
  N  N1333  1  0.87556333  0.38005584  0.31230484  1
  H  H1334  1  0.84509593  0.32756479  0.34795309  1
  H  H1335  1  0.81510689  0.37384623  0.38955028  1
  H  H1336  1  0.85841398  0.29579637  0.25061098  1
  H  H1337  1  0.76745849  0.43320099  0.32033156  1
  C  C1338  1  0.91183815  0.40817105  0.47215573  1
  C  C1339  1  0.90466842  0.44375383  0.34811315  1
  H  H1340  1  0.78787724  0.27389777  0.36434425  1
  C  C1341  1  0.76713749  0.47023259  0.47529873  1
  H  H1342  1  0.89195160  0.35587576  0.41816254  1
  C  C1343  1  0.86500596  0.32653026  0.26396707  1
  C  C1344  1  0.83356321  0.40533912  0.38590998  1
  Zn  Zn1345  1  0.98175131  0.29718247  0.44465989  1
  N  N1346  1  0.82493980  0.27166186  0.44942485  1
  C  C1347  1  0.91433974  0.36887299  0.45091278  1
  N  N1348  1  0.77344936  0.44305281  0.43958737  1
  C  C1349  1  0.84573475  0.47593357  0.40516214  1
  C  C1350  1  0.75303908  0.37484822  0.27859488  1
  H  H1351  1  0.79600547  0.31623056  0.39925428  1
  C  C1352  1  0.84324605  0.27417316  0.49798549  1
  H  H1353  1  0.78648509  0.35847272  0.26890100  1
  H  H1354  1  0.90918971  0.41761383  0.25169643  1
  N  N1355  1  0.95202090  0.41368869  0.49981864  1
  H  H1356  1  0.79671260  0.49070300  0.48972585  1
  C  C1357  1  0.58204181  0.12654202  0.52484308  1
  N  N1358  1  0.60540407  0.05206982  0.65874856  1
  C  C1359  1  0.59621046  0.09118918  0.64127220  1
  H  H1360  1  0.68085488  0.06810517  0.60011852  1
  N  N1361  1  0.56212562  0.15744473  0.54956711  1
  H  H1362  1  0.57941811  0.09996415  0.60462904  1
  N  N1363  1  0.63013737  0.12221179  0.54074011  1
  C  C1364  1  0.69047665  0.06789307  0.55908738  1
  C  C1365  1  0.59758686  0.17694973  0.57559076  1
  H  H1366  1  0.59115891  0.04277606  0.55505859  1
  H  H1367  1  0.53415743  0.16739464  0.66514939  1
  N  N1368  1  0.61350585  0.11624259  0.67587043  1
  H  H1369  1  0.59217380  0.20101230  0.60273427  1
  C  C1370  1  0.58288267  0.01679787  0.57719855  1
  C  C1371  1  0.64065708  0.15492795  0.57014254  1
  H  H1372  1  0.67827070  0.15560205  0.58711344  1
  C  C1373  1  0.52382181  0.19729317  0.65227383  1
  N  N1374  1  0.53801935  0.23246643  0.67719974  1
  C  C1375  1  0.63095009  0.05201098  0.70142256  1
  C  C1376  1  0.73301060  0.20420704  0.53105986  1
  C  C1377  1  0.72563979  0.04254703  0.53614232  1
  C  C1378  1  0.56290181  0.23300639  0.72611755  1
  C  C1379  1  0.63646474  0.09312347  0.71092433  1
  C  C1380  1  0.59460568  0.01477599  0.62931000  1
  C  C1381  1  0.66185882  0.09010447  0.52449374  1
  C  C1382  1  0.72787486  0.23981479  0.55944051  1
  N  N1383  1  0.50763721  0.20796169  0.60805110  1
  C  C1384  1  0.73998132  0.02762888  0.73324859  1
  H  H1385  1  0.68419486  0.00299508  0.61612381  1
  N  N1386  1  0.74715506  0.01382225  0.56982956  1
  H  H1387  1  0.73036967  0.24176983  0.60027578  1
  H  H1388  1  0.51832867  0.06921383  0.56066632  1
  H  H1389  1  0.64799476  0.02515223  0.71739478  1
  H  H1390  1  0.74113146  0.00790353  0.70058281  1
  C  C1391  1  0.50589650  0.09488395  0.74973151  1
  H  H1392  1  0.74615904  0.18083587  0.63876978  1
  H  H1393  1  0.51712538  0.10544017  0.71236538  1
  C  C1394  1  0.50544302  0.24912008  0.60596773  1
  H  H1395  1  0.65864207  0.11050485  0.73968678  1
  C  C1396  1  0.99691393  0.07062368  0.50585826  1
  N  N1397  1  0.75070108  0.16810275  0.55718905  1
  C  C1398  1  0.75729984  0.15856046  0.60854668  1
  H  H1399  1  0.82119835  0.00367343  0.54232155  1
  N  N1400  1  0.75466825  0.06478681  0.73502095  1
  C  C1401  1  0.76693015  0.13759067  0.52770216  1
  H  H1402  1  0.89093518  0.02097828  0.65410192  1
  C  C1403  1  0.91019491  0.01404664  0.61735528  1
  N  N1404  1  0.77572863  0.12229220  0.61070004  1
  H  H1405  1  0.80260389  0.07844096  0.55785708  1
  C  C1406  1  0.78563246  0.10922930  0.56266714  1
  Zn  Zn1407  1  0.78835690  0.09182767  0.67300894  1
  C  C1408  1  0.97675780  0.12459792  0.66127076  1
  N  N1409  1  0.85537368  0.09098947  0.68852582  1
  N  N1410  1  0.93091547  0.10825269  0.67981204  1
  C  C1411  1  0.88591842  0.10902002  0.65610272  1
  H  H1412  1  0.87357125  0.11882230  0.61675173  1
  C  C1413  1  0.97313448  0.16320604  0.63685754  1
  H  H1414  1  0.94034700  0.18204250  0.63785175  1
  C  C1415  1  0.92559047  0.08733293  0.72338687  1
  C  C1416  1  0.94584016  0.03474757  0.58818254  1
  H  H1417  1  0.83677772  0.18436558  0.66359906  1
  C  C1418  1  0.85012436  0.21481330  0.65336960  1
  N  N1419  1  0.95050047  0.01471665  0.54483283  1
  H  H1420  1  0.96358014  0.06438147  0.59802299  1
  C  C1421  1  0.87740439  0.07566338  0.72914911  1
  C  C1422  1  0.91420634  0.21190973  0.71851448  1
  C  C1423  1  0.96422631  0.21700618  0.72458831  1
  N  N1424  1  0.88881848  0.23120100  0.67655894  1
  H  H1425  1  0.93987470  0.23427318  0.58812938  1
  H  H1426  1  0.98410571  0.23515873  0.69520977  1
  H  H1427  1  0.81024456  0.24364467  0.58664187  1
  C  C1428  1  0.83551171  0.24419598  0.61699989  1
  H  H1429  1  0.85485290  0.24844836  0.52304253  1
  C  C1430  1  0.97590951  0.24587863  0.59716256  1
  H  H1431  1  0.85055113  0.18365128  0.74586244  1
  C  C1432  1  0.97581954  0.03142594  0.50072178  1
  C  C1433  1  0.51228782  0.49013373  0.60239592  1
  C  C1434  1  0.60056554  0.49567906  0.59226519  1
  C  C1435  1  0.52641131  0.26589918  0.65106163  1
  H  H1436  1  0.52736477  0.29845543  0.66351459  1
  H  H1437  1  0.60227806  0.28534634  0.70561193  1
  C  C1438  1  0.60781876  0.46532054  0.62881710  1
  C  C1439  1  0.53478667  0.37639517  0.67385626  1
  C  C1440  1  0.56468010  0.44720713  0.64856660  1
  N  N1441  1  0.56289509  0.41080356  0.68125724  1
  H  H1442  1  0.64263043  0.45377983  0.64318208  1
  C  C1443  1  0.72103844  0.32172998  0.61260681  1
  N  N1444  1  0.72413788  0.31571116  0.56059166  1
  C  C1445  1  0.71705725  0.27753331  0.53425594  1
  C  C1446  1  0.58631385  0.40516088  0.72572579  1
  H  H1447  1  0.69852990  0.48378342  0.51774486  1
  N  N1448  1  0.73151026  0.36037831  0.62265521  1
  C  C1449  1  0.73388420  0.35065581  0.53653911  1
  H  H1450  1  0.71280692  0.29798307  0.64191349  1
  N  N1451  1  0.53788141  0.35196242  0.71296679  1
  H  H1452  1  0.63950963  0.33845191  0.52964978  1
  C  C1453  1  0.51703242  0.45880817  0.63781135  1
  H  H1454  1  0.64307416  0.33803300  0.72739867  1
  C  C1455  1  0.67573076  0.32278861  0.73980296  1
  C  C1456  1  0.73954492  0.37832247  0.57640046  1
  N  N1457  1  0.72834969  0.43974864  0.69764675  1
  Zn  Zn1458  1  0.73565509  0.38231818  0.68821889  1
  H  H1459  1  0.74763698  0.41253560  0.57104924  1
  H  H1460  1  0.60911032  0.42879996  0.74116086  1
  C  C1461  1  0.57200058  0.36686655  0.74599668  1
  N  N1462  1  0.72076002  0.33279076  0.73253929  1
  C  C1463  1  0.59714339  0.26287447  0.73561726  1
  C  C1464  1  0.69934092  0.45937753  0.73083029  1
  H  H1465  1  0.51096417  0.37271102  0.64034471  1
  C  C1466  1  0.97458217  0.37585944  0.50208151  1
  C  C1467  1  0.98275460  0.47124115  0.74744280  1
  C  C1468  1  0.98003361  0.44172847  0.58232043  1
  C  C1469  1  0.97335766  0.45316082  0.69999326  1
  H  H1470  1  0.98676454  0.41074632  0.59717371  1
  C  C1471  1  0.89919402  0.26900895  0.65527398  1
  C  C1472  1  0.87296990  0.43022578  0.73281904  1
  H  H1473  1  0.78338016  0.45724867  0.64363431  1
  C  C1474  1  0.99442778  0.28563417  0.58993142  1
  N  N1475  1  0.86635885  0.37501805  0.61603559  1
  H  H1476  1  0.93037050  0.28873585  0.66445375  1
  C  C1477  1  0.95491238  0.48817395  0.51266050  1
  H  H1478  1  0.85899147  0.34824578  0.68786877  1
  C  C1479  1  0.86823831  0.41305848  0.59727188  1
  C  C1480  1  0.96380692  0.44816095  0.53236063  1
  C  C1481  1  0.87190547  0.43913343  0.63862942  1
  N  N1482  1  0.86835048  0.41572917  0.68158108  1
  H  H1483  1  0.97367516  0.31265696  0.57426321  1
  C  C1484  1  0.75606524  0.46606267  0.67294703  1
  C  C1485  1  0.86260299  0.37564849  0.66548503  1
  C  C1486  1  0.98379076  0.47726473  0.61211165  1
  H  H1487  1  0.95015101  0.42592329  0.69093135  1
  H  H1488  1  0.86964804  0.42322639  0.55768718  1
  N  N1489  1  0.86634186  0.27638842  0.62018928  1
  H  H1490  1  0.83690150  0.48810413  0.72875592  1
  N  N1491  1  0.99161129  0.47936705  0.66628594  1
  N  N1492  1  0.83980958  0.31375066  0.51052254  1
  H  H1493  1  0.88386356  0.47053956  0.63868865  1
  Zn  Zn1494  1  0.86408660  0.32456580  0.57739263  1
  H  H1495  1  0.78996410  0.30786411  0.74974160  1
  C  C1496  1  0.86599262  0.47169296  0.74587062  1
  C  C1497  1  0.57701751  0.10374605  0.86564313  1
  C  C1498  1  0.58694669  0.12676999  0.82128897  1
  H  H1499  1  0.59272653  0.11840804  0.78101119  1
  N  N1500  1  0.57107201  0.13061945  0.90478326  1
  N  N1501  1  0.58823061  0.16555923  0.83569939  1
  C  C1502  1  0.57852643  0.16776797  0.88800643  1
  C  C1503  1  0.59336905  0.20060967  0.80217016  1
  H  H1504  1  0.57559828  0.19526505  0.91035738  1
  N  N1505  1  0.70666008  0.21476263  0.91970012  1
  C  C1506  1  0.63200251  0.22855678  0.81264735  1
  C  C1507  1  0.66606393  0.21378818  0.94818092  1
  H  H1508  1  0.67159506  0.08924351  0.92515722  1
  H  H1509  1  0.65524668  0.18543470  0.96871813  1
  C  C1510  1  0.70937556  0.07741109  0.92879173  1
  H  H1511  1  0.57192658  0.07148890  0.86959591  1
  H  H1512  1  0.65627755  0.22739339  0.84570035  1
  H  H1513  1  0.53866893  0.21154416  0.96337198  1
  H  H1514  1  0.70875494  0.01044879  0.95408902  1
  C  C1515  1  0.72704998  0.03987240  0.94636877  1
  N  N1516  1  0.72428872  0.01762595  0.78183070  1
  C  C1517  1  0.72562911  0.05095554  0.81311795  1
  H  H1518  1  0.71725321  0.05058009  0.85428015  1
  C  C1519  1  0.55981407  0.20054577  0.76159734  1
  C  C1520  1  0.63831346  0.24861672  0.93921127  1
  Zn  Zn1521  1  0.54918895  0.11640923  0.97330684  1
  N  N1522  1  0.74662669  0.10387325  0.92568182  1
  C  C1523  1  0.51959623  0.20344640  0.99739142  1
  H  H1524  1  0.54107950  0.03110961  0.75544354  1
  C  C1525  1  0.74401477  0.08066755  0.78144741  1
  Zn  Zn1526  1  0.74931680  0.16343494  0.90800705  1
  C  C1527  1  0.51890103  0.05683089  0.77009343  1
  H  H1528  1  0.72652789  0.24345937  0.79322465  1
  H  H1529  1  0.50335577  0.15781394  0.86208648  1
  H  H1530  1  0.62757107  0.04507927  0.98906887  1
  C  C1531  1  0.53193962  0.00909070  0.98919521  1
  H  H1532  1  0.53199614  0.17709833  0.75625079  1
  C  C1533  1  0.89494417  0.00481933  0.98300240  1
  H  H1534  1  0.75607935  0.11281031  0.79037238  1
  N  N1535  1  0.91562492  0.02423034  0.81517945  1
  N  N1536  1  0.84680580  0.04660752  0.84268950  1
  C  C1537  1  0.99766742  0.04867648  0.82778899  1
  N  N1538  1  0.77480548  0.04480946  0.95089346  1
  C  C1539  1  0.85991036  0.02568211  0.95651550  1
  C  C1540  1  0.81072811  0.01677559  0.97207118  1
  C  C1541  1  0.96657737  0.02336452  0.79978960  1
  N  N1542  1  0.81723980  0.16434383  0.89013309  1
  C  C1543  1  0.83196948  0.16149207  0.84287797  1
  N  N1544  1  0.88259731  0.16773909  0.84094879  1
  C  C1545  1  0.85643416  0.17013875  0.92165552  1
  C  C1546  1  0.90965361  0.17424078  0.79740321  1
  H  H1547  1  0.80940568  0.15571384  0.81000895  1
  C  C1548  1  0.78631289  0.08523893  0.93938442  1
  H  H1549  1  0.90430614  0.08337109  0.85825291  1
  C  C1550  1  0.89300280  0.05416449  0.84300361  1
  H  H1551  1  0.82226542  0.09994340  0.94328720  1
  H  H1552  1  0.86729363  0.04420987  0.92434804  1
  C  C1553  1  0.89703890  0.17148280  0.89059130  1
  C  C1554  1  0.96109272  0.18338132  0.80555136  1
  H  H1555  1  0.85583160  0.17131472  0.96504635  1
  H  H1556  1  0.93433432  0.17849005  0.90006675  1
  H  H1557  1  0.98786654  0.06940821  0.86005416  1
  C  C1558  1  0.88878032  0.18856766  0.75329891  1
  H  H1559  1  0.97525965  0.17348118  0.84325473  1
  C  C1560  1  0.97978000  0.02941249  0.99094435  1
  C  C1561  1  0.98889078  0.20073624  0.76812338  1
  C  C1562  1  0.98032531  0.00379974  0.75393811  1
  C  C1563  1  0.83871738  0.01259069  0.81601968  1
  N  N1564  1  0.94623008  0.00613516  0.96761988  1
  H  H1565  1  0.85926156  0.06095131  0.76241011  1
  H  H1566  1  0.98945100  0.10000029  0.94014258  1
  N  N1567  1  0.99185749  0.16236348  0.92863932  1
  H  H1568  1  0.95546062  0.08317114  0.75009826  1
  C  C1569  1  0.70893420  0.25130074  0.89881255  1
  H  H1570  1  0.60259530  0.25791338  0.95477681  1
  N  N1571  1  0.61209814  0.49267211  0.80474047  1
  H  H1572  1  0.58491325  0.47680343  0.87892736  1
  C  C1573  1  0.63232074  0.26006776  0.77539065  1
  C  C1574  1  0.51205053  0.36093325  0.87586940  1
  H  H1575  1  0.51611804  0.33503668  0.89951420  1
  C  C1576  1  0.72037106  0.27377793  0.77486191  1
  N  N1577  1  0.66534997  0.27250300  0.90769115  1
  H  H1578  1  0.57830011  0.30376164  0.87958270  1
  C  C1579  1  0.65617105  0.31381860  0.89142998  1
  C  C1580  1  0.60688768  0.32544888  0.88157739  1
  C  C1581  1  0.60067890  0.36471561  0.86066907  1
  H  H1582  1  0.55730964  0.43120655  0.80261561  1
  C  C1583  1  0.53362801  0.41143339  0.82512866  1
  N  N1584  1  0.55002322  0.37957461  0.85484106  1
  H  H1585  1  0.62845962  0.42571685  0.84111211  1
  C  C1586  1  0.63642954  0.39440993  0.85130011  1
  C  C1587  1  0.68464336  0.37802729  0.85803232  1
  C  C1588  1  0.69493096  0.33911637  0.87837594  1
  H  H1589  1  0.68791956  0.46240850  0.83811853  1
  N  N1590  1  0.67469850  0.28532983  0.76634009  1
  H  H1591  1  0.57909838  0.34890740  0.78322439  1
  N  N1592  1  0.72349297  0.40310232  0.84246594  1
  C  C1593  1  0.72256498  0.44379667  0.83512972  1
  H  H1594  1  0.73210065  0.32644670  0.88407022  1
  C  C1595  1  0.74950634  0.30364064  0.75324077  1
  H  H1596  1  0.67342989  0.44465555  0.75726504  1
  C  C1597  1  0.58154449  0.49595231  0.84359165  1
  H  H1598  1  0.73757334  0.26500972  0.87261402  1
  H  H1599  1  0.98645470  0.35640016  0.94985987  1
  H  H1600  1  0.91939984  0.46554532  0.86404012  1
  C  C1601  1  0.95731081  0.39883628  0.89022878  1
  H  H1602  1  0.83682348  0.42676362  0.82478578  1
  C  C1603  1  0.91233095  0.41506518  0.81163262  1
  N  N1604  1  0.76743752  0.45800403  0.82911229  1
  H  H1605  1  0.95961406  0.42893507  0.90544750  1
  C  C1606  1  0.94229907  0.34563389  0.83857765  1
  C  C1607  1  0.90831959  0.45664973  0.82702059  1
  C  C1608  1  0.89467939  0.40141736  0.76507229  1
  H  H1609  1  0.78243324  0.35948673  0.84171363  1
  H  H1610  1  0.97520352  0.45863467  0.78562485  1
  C  C1611  1  0.77134620  0.39052215  0.83753555  1
  C  C1612  1  0.97034287  0.36300059  0.91175824  1
  C  C1613  1  0.88580805  0.48403866  0.79388876  1
  H  H1614  1  0.93199804  0.32655441  0.80789564  1
  H  H1615  1  0.89923903  0.36867003  0.75495633  1
  N  N1616  1  0.96425412  0.33202029  0.87857919  1
  N  N1617  1  0.93600589  0.38656482  0.84496362  1
  C  C1618  1  0.79709725  0.42529312  0.82834857  1
  C  C1619  1  0.63207605  0.69708806  0.08261887  1
  N  N1620  1  0.66488042  0.69158947  0.12665314  1
  H  H1621  1  0.61829233  0.69226262  0.18981653  1
  C  C1622  1  0.65548008  0.69119227  0.17528837  1
  C  C1623  1  0.71524351  0.68818413  0.12068295  1
  C  C1624  1  0.70063373  0.69066526  0.20098262  1
  C  C1625  1  0.58860571  0.71717825  0.09377715  1
  H  H1626  1  0.57357477  0.71954213  0.13143231  1
  C  C1627  1  0.64754309  0.68805630  0.03360664  1
  H  H1628  1  0.70461716  0.68984102  0.24360972  1
  H  H1629  1  0.68243376  0.67018405  0.02751578  1
  H  H1630  1  0.73482577  0.68592315  0.08393002  1
  N  N1631  1  0.73581294  0.68880320  0.16606875  1
  H  H1632  1  0.55032804  0.55470672  0.24895981  1
  C  C1633  1  0.56496666  0.73937788  0.05370645  1
  H  H1634  1  0.50258967  0.68673710  0.02952130  1
  C  C1635  1  0.57695443  0.72663121  0.00418179  1
  C  C1636  1  0.99834401  0.52276921  0.20365237  1
  Zn  Zn1637  1  0.80570555  0.68803187  0.18284046  1
  C  C1638  1  0.89169483  0.63849445  0.18514187  1
  H  H1639  1  0.90953550  0.65465950  0.15185381  1
  N  N1640  1  0.91704686  0.60891613  0.21267771  1
  N  N1641  1  0.85196845  0.64780143  0.21076996  1
  C  C1642  1  0.96088751  0.58646588  0.19878277  1
  C  C1643  1  0.96398924  0.54958083  0.22528507  1
  C  C1644  1  0.98816125  0.60002429  0.15758153  1
  H  H1645  1  0.91058145  0.71610973  0.18943351  1
  H  H1646  1  0.97493006  0.62670444  0.13663495  1
  H  H1647  1  0.85887931  0.71404551  0.01601174  1
  N  N1648  1  0.84230866  0.73603653  0.16988791  1
  H  H1649  1  0.78379103  0.72644205  0.02637535  1
  H  H1650  1  0.96924672  0.51833798  0.02502638  1
  H  H1651  1  0.97882181  0.73330954  0.12007149  1
  C  C1652  1  0.88812152  0.74044882  0.17285824  1
  H  H1653  1  0.62284075  0.99134344  0.06354021  1
  H  H1654  1  0.63871957  0.76448685  0.03938284  1
  N  N1655  1  0.66678070  0.98617494  0.14409567  1
  N  N1656  1  0.55344757  0.78187675  0.06385734  1
  H  H1657  1  0.57756023  0.78570960  0.14201151  1
  H  H1658  1  0.54902047  0.97636039  0.16309153  1
  C  C1659  1  0.56379389  0.80178323  0.10934337  1
  C  C1660  1  0.58875360  0.97347072  0.15727116  1
  C  C1661  1  0.65840954  0.94397662  0.14134475  1
  N  N1662  1  0.61220219  0.93770522  0.14904775  1
  N  N1663  1  0.58899094  0.85239992  0.21477624  1
  Zn  Zn1664  1  0.58032185  0.88515474  0.15060473  1
  N  N1665  1  0.55745905  0.84067123  0.09980556  1
  C  C1666  1  0.53757667  0.84708863  0.05493327  1
  H  H1667  1  0.68456639  0.91777998  0.13261876  1
  H  H1668  1  0.54553516  0.79943471  0.20274031  1
  H  H1669  1  0.64974257  0.81392721  0.12785702  1
  C  C1670  1  0.57312693  0.81521353  0.22509848  1
  C  C1671  1  0.67300330  0.77653069  0.05714238  1
  C  C1672  1  0.67762447  0.79958977  0.10355461  1
  H  H1673  1  0.72307347  0.92749405  0.21155727  1
  C  C1674  1  0.53215921  0.80736850  0.03226331  1
  N  N1675  1  0.71586226  0.77748658  0.03464966  1
  N  N1676  1  0.72445140  0.81212575  0.10640464  1
  H  H1677  1  0.52754558  0.87714817  0.04451625  1
  C  C1678  1  0.73199581  0.90134521  0.23541144  1
  C  C1679  1  0.59851365  0.99464886  0.03278308  1
  C  C1680  1  0.62173572  0.86331432  0.24996374  1
  H  H1681  1  0.59426612  0.98238723  0.23944319  1
  H  H1682  1  0.64509454  0.89117968  0.24672459  1
  N  N1683  1  0.74942190  0.86413807  0.22490484  1
  C  C1684  1  0.74855261  0.79846434  0.06696974  1
  H  H1685  1  0.73233762  0.84164799  0.00169359  1
  H  H1686  1  0.89973432  0.94229443  0.24948149  1
  H  H1687  1  0.80833934  0.94486213  0.20752314  1
  H  H1688  1  0.98203016  0.94440885  0.00877310  1
  N  N1689  1  0.85799818  0.81051462  0.00757323  1
  Zn  Zn1690  1  0.75277143  0.84797936  0.15337788  1
  C  C1691  1  0.88731357  0.96189587  0.21793321  1
  C  C1692  1  0.79731232  0.98827882  0.00715929  1
  C  C1693  1  0.86530624  0.92149538  0.09952449  1
  C  C1694  1  0.88579565  0.97704993  0.02292903  1
  H  H1695  1  0.75899864  0.90972062  0.05510904  1
  C  C1696  1  0.99040136  0.91301882  0.02249000  1
  H  H1697  1  0.86340741  0.87563505  0.16598432  1
  H  H1698  1  0.89868106  0.93796187  0.10462074  1
  N  N1699  1  0.83911147  0.99409154  0.16526955  1
  H  H1700  1  0.75858773  0.98257941  0.02055641  1
  H  H1701  1  0.86353336  0.82231154  0.10744554  1
  C  C1702  1  0.84003750  0.96259341  0.19753209  1
  H  H1703  1  0.91439514  0.96071403  0.04277016  1
  N  N1704  1  0.90195686  0.77660507  0.14669338  1
  N  N1705  1  0.95176978  0.88736790  0.02022209  1
  H  H1706  1  0.78708741  0.80350675  0.05519298  1
  H  H1707  1  0.85200676  0.87163814  0.03471245  1
  C  C1708  1  0.84720340  0.89128151  0.13097151  1
  C  C1709  1  0.95904325  0.83341876  0.15044333  1
  H  H1710  1  0.94694041  0.92142943  0.17477677  1
  C  C1711  1  0.75700709  0.98618468  0.13617233  1
  C  C1712  1  0.94917976  0.79279457  0.13902811  1
  C  C1713  1  0.79093156  0.90855610  0.07717250  1
  N  N1714  1  0.80173931  0.88350521  0.11481901  1
  H  H1715  1  0.75775836  0.95195785  0.14204147  1
  H  H1716  1  0.78356704  0.76809484  0.13486755  1
  C  C1717  1  0.98852362  0.92100060  0.17507067  1
  H  H1718  1  0.94611245  0.82225688  0.03721412  1
  N  N1719  1  0.82892661  0.93405391  0.06675247  1
  C  C1720  1  0.83662156  0.96719495  0.03073910  1
  N  N1721  1  0.91295069  0.99150485  0.19506068  1
  H  H1722  1  0.93211282  0.85375721  0.16349165  1
  C  C1723  1  0.96838011  0.84995027  0.03338124  1
  C  C1724  1  0.98726372  0.76542783  0.12494491  1
  C  C1725  1  0.82214471  0.76820721  0.14326923  1
  C  C1726  1  0.86073252  0.79389423  0.13069531  1
  C  C1727  1  0.84937574  0.85041903  0.00157759  1
  C  C1728  1  0.70827392  0.68329012  0.43834757  1
  C  C1729  1  0.63149983  0.67287497  0.43219097  1
  H  H1730  1  0.59544608  0.66944401  0.44285586  1
  N  N1731  1  0.66990034  0.66390304  0.46032821  1
  N  N1732  1  0.64622625  0.69309931  0.38792153  1
  C  C1733  1  0.69365407  0.70038246  0.39185826  1
  C  C1734  1  0.61613569  0.70391714  0.34482236  1
  H  H1735  1  0.56599088  0.65384150  0.35127684  1
  C  C1736  1  0.57206624  0.68340272  0.33269815  1
  C  C1737  1  0.60176808  0.53507912  0.44061298  1
  H  H1738  1  0.60693523  0.56722720  0.43028405  1
  N  N1739  1  0.55823952  0.52369567  0.46155849  1
  C  C1740  1  0.69574534  0.52897142  0.33831251  1
  C  C1741  1  0.64594154  0.53950494  0.32760071  1
  C  C1742  1  0.53039258  0.59622566  0.46846585  1
  H  H1743  1  0.63563627  0.57165777  0.32268035  1
  C  C1744  1  0.71661675  0.60025769  0.36463335  1
  C  C1745  1  0.52041301  0.55431044  0.46394823  1
  H  H1746  1  0.67862201  0.60879921  0.37310791  1
  H  H1747  1  0.71262168  0.71385961  0.36089543  1
  N  N1748  1  0.72840625  0.56222510  0.34693324  1
  C  C1749  1  0.53965792  0.69938579  0.29728771  1
  N  N1750  1  0.52348128  0.72958686  0.43328093  1
  C  C1751  1  0.62564568  0.74061116  0.31778846  1
  H  H1752  1  0.52090741  0.61616712  0.30764617  1
  C  C1753  1  0.52611011  0.72741361  0.48481120  1
  C  C1754  1  0.54660814  0.73802871  0.27488206  1
  H  H1755  1  0.56720419  0.61065686  0.46925044  1
  H  H1756  1  0.74574223  0.67863523  0.45524717  1
  H  H1757  1  0.74986968  0.62000904  0.45001873  1
  C  C1758  1  0.51058855  0.69326865  0.41663794  1
  N  N1759  1  0.50844859  0.66802857  0.45784509  1
  N  N1760  1  0.55878832  0.51805558  0.31659365  1
  C  C1761  1  0.53233260  0.53993655  0.28182873  1
  C  C1762  1  0.52829696  0.50382398  0.35283159  1
  H  H1763  1  0.50365414  0.68528332  0.37572771  1
  C  C1764  1  0.61083492  0.50824647  0.32113489  1
  H  H1765  1  0.98210137  0.50106814  0.35168325  1
  H  H1766  1  0.75949283  0.53304731  0.44617381  1
  C  C1767  1  0.75848646  0.62289955  0.36763168  1
  H  H1768  1  0.76627728  0.65577735  0.37071694  1
  C  C1769  1  0.77819821  0.56116953  0.34597224  1
  N  N1770  1  0.79584586  0.59845682  0.35707022  1
  C  C1771  1  0.81827140  0.72322732  0.34462825  1
  H  H1772  1  0.93187630  0.54795621  0.45019607  1
  N  N1773  1  0.90995833  0.51904980  0.36720294  1
  C  C1774  1  0.95692410  0.52675438  0.35669129  1
  N  N1775  1  0.95643834  0.69138342  0.41677091  1
  N  N1776  1  0.86229983  0.67786100  0.39009295  1
  Zn  Zn1777  1  0.91688921  0.63978202  0.40912938  1
  N  N1778  1  0.92045998  0.58279011  0.37809545  1
  H  H1779  1  0.84917811  0.55971868  0.39156118  1
  C  C1780  1  0.88647645  0.55499819  0.37829936  1
  C  C1781  1  0.85064242  0.68997198  0.34252655  1
  H  H1782  1  0.86844111  0.67704767  0.30878603  1
  N  N1783  1  0.93455460  0.61141626  0.47290327  1
  C  C1784  1  0.83680143  0.70077824  0.42131405  1
  H  H1785  1  0.83705446  0.69936894  0.46315660  1
  C  C1786  1  0.96301827  0.56908636  0.36080288  1
  N  N1787  1  0.81380439  0.73099008  0.39377881  1
  C  C1788  1  0.93714852  0.57149607  0.47975723  1
  C  C1789  1  0.93994987  0.72833852  0.41508449  1
  H  H1790  1  0.80317844  0.53658038  0.34224293  1
  H  H1791  1  0.79870108  0.74025485  0.31525128  1
  C  C1792  1  0.77834633  0.55564606  0.46933235  1
  H  H1793  1  0.90213649  0.73884221  0.40783514  1
  H  H1794  1  0.83471501  0.50392903  0.42518448  1
  H  H1795  1  0.99459589  0.58977930  0.36126573  1
  H  H1796  1  0.81816840  0.62333346  0.27950224  1
  H  H1797  1  0.90561409  0.58128116  0.28332891  1
  H  H1798  1  0.94279047  0.54163809  0.25904800  1
  N  N1799  1  0.81609814  0.54527966  0.49832138  1
  C  C1800  1  0.77465896  0.59765350  0.47016257  1
  H  H1801  1  0.92357023  0.74638890  0.49149194  1
  C  C1802  1  0.84885330  0.62438185  0.25199851  1
  C  C1803  1  0.89191609  0.60142455  0.25477430  1
  C  C1804  1  0.58985031  0.75897073  0.28685034  1
  H  H1805  1  0.65796353  0.76042314  0.32655556  1
  H  H1806  1  0.72854242  0.76603746  0.36531141  1
  C  C1807  1  0.65291013  0.99056939  0.38308304  1
  H  H1808  1  0.64028253  0.76219939  0.42710973  1
  C  C1809  1  0.64779249  0.99026076  0.32986009  1
  N  N1810  1  0.52658391  0.95503823  0.43075012  1
  Zn  Zn1811  1  0.53209651  0.77907050  0.39374032  1
  C  C1812  1  0.68931440  0.96351354  0.40194964  1
  H  H1813  1  0.57758699  0.86844156  0.37026643  1
  C  C1814  1  0.65546312  0.85723620  0.39301005  1
  C  C1815  1  0.60555386  0.84975113  0.38766112  1
  C  C1816  1  0.63675816  0.79438771  0.41598714  1
  N  N1817  1  0.59610781  0.81069490  0.40028115  1
  N  N1818  1  0.67456193  0.82286989  0.41102543  1
  C  C1819  1  0.72588811  0.81720686  0.41981450  1
  H  H1820  1  0.67806524  0.88244305  0.38225415  1
  N  N1821  1  0.68605456  0.95132251  0.45471156  1
  C  C1822  1  0.67709431  0.96441116  0.29800770  1
  C  C1823  1  0.71769866  0.93602764  0.37307373  1
  C  C1824  1  0.70948007  0.93767441  0.31973994  1
  H  H1825  1  0.69265319  0.88400397  0.45491458  1
  H  H1826  1  0.65281428  0.82586154  0.31627515  1
  C  C1827  1  0.68566366  0.91172732  0.47454487  1
  C  C1828  1  0.62898493  0.82891992  0.28146168  1
  C  C1829  1  0.52367632  0.95010122  0.48088298  1
  H  H1830  1  0.51386552  0.84500515  0.31510551  1
  N  N1831  1  0.72763505  0.90441745  0.28758755  1
  N  N1832  1  0.59776421  0.80019347  0.26704072  1
  C  C1833  1  0.66892102  0.97475283  0.49211430  1
  H  H1834  1  0.58712419  0.87533358  0.48148778  1
  H  H1835  1  0.67353241  0.96745580  0.25690199  1
  C  C1836  1  0.74663231  0.78321626  0.39398584  1
  H  H1837  1  0.74029757  0.86461379  0.34965969  1
  C  C1838  1  0.73625571  0.86814253  0.30895063  1
  C  C1839  1  0.55068305  0.98912269  0.42208743  1
  H  H1840  1  0.74209069  0.91284140  0.38891608  1
  H  H1841  1  0.74245191  0.86962629  0.46865788  1
  H  H1842  1  0.51952754  0.75098400  0.25079970  1
  Zn  Zn1843  1  0.84097026  0.99997436  0.35898580  1
  N  N1844  1  0.97902279  0.75589017  0.42610098  1
  H  H1845  1  0.95219773  0.98462711  0.44689706  1
  C  C1846  1  0.75561537  0.84162332  0.45171200  1
  H  H1847  1  0.75904277  0.80901797  0.26581825  1
  C  C1848  1  0.82935385  0.90964749  0.36375224  1
  C  C1849  1  0.81617587  0.78703220  0.45422314  1
  H  H1850  1  0.92637710  0.95502875  0.40873192  1
  N  N1851  1  0.89893120  0.89137344  0.39762171  1
  C  C1852  1  0.93821759  0.82181299  0.41141710  1
  H  H1853  1  0.79072506  0.91160185  0.35088202  1
  C  C1854  1  0.78927126  0.76643227  0.41553078  1
  C  C1855  1  0.97906127  0.79961877  0.42735250  1
  C  C1856  1  0.99801084  0.96865833  0.30457656  1
  C  C1857  1  0.79915725  0.82469181  0.46998877  1
  C  C1858  1  0.99665102  0.97694887  0.35720973  1
  C  C1859  1  0.89732007  0.93368113  0.39358165  1
  H  H1860  1  0.84925126  0.84282331  0.38075913  1
  C  C1861  1  0.75043130  0.84292434  0.26815524  1
  H  H1862  1  0.90980764  0.80784287  0.39027699  1
  C  C1863  1  0.85795011  0.87557491  0.37709450  1
  H  H1864  1  0.84912310  0.77474877  0.47005964  1
  N  N1865  1  0.85590032  0.94321482  0.37161870  1
  C  C1866  1  0.97609028  0.88608887  0.44076922  1
  C  C1867  1  0.93584124  0.86495088  0.41742752  1
  H  H1868  1  0.97757179  0.91978834  0.44189067  1
  N  N1869  1  0.55928524  0.63566179  0.64299117  1
  N  N1870  1  0.61306800  0.65070105  0.58361007  1
  C  C1871  1  0.55778841  0.58432396  0.71072217  1
  C  C1872  1  0.59976270  0.62290632  0.61718768  1
  H  H1873  1  0.61281477  0.59056287  0.62150938  1
  H  H1874  1  0.59518772  0.57448716  0.69914371  1
  C  C1875  1  0.58469347  0.68297741  0.58945844  1
  N  N1876  1  0.63777873  0.52252972  0.57363441  1
  C  C1877  1  0.70265987  0.56385839  0.57133502  1
  C  C1878  1  0.68437548  0.52638137  0.58993051  1
  H  H1879  1  0.54473924  0.52998352  0.54978975  1
  C  C1880  1  0.53242384  0.61594069  0.68489449  1
  C  C1881  1  0.63141921  0.55392465  0.53916178  1
  N  N1882  1  0.66634949  0.58070682  0.54381485  1
  C  C1883  1  0.54859885  0.67276637  0.62587313  1
  N  N1884  1  0.71830899  0.64640517  0.67951401  1
  C  C1885  1  0.71980136  0.68681326  0.66609324  1
  C  C1886  1  0.68757751  0.70916636  0.69507877  1
  H  H1887  1  0.59886772  0.56265323  0.51762422  1
  H  H1888  1  0.68095843  0.74232170  0.69743203  1
  H  H1889  1  0.69253334  0.56619667  0.68127467  1
  C  C1890  1  0.55661993  0.72490122  0.71822196  1
  H  H1891  1  0.58765854  0.71075615  0.56457228  1
  Zn  Zn1892  1  0.65926798  0.64023731  0.52625000  1
  H  H1893  1  0.73629268  0.58111840  0.58395268  1
  C  C1894  1  0.73148893  0.57436638  0.67376486  1
  C  C1895  1  0.68707429  0.74005686  0.53381960  1
  H  H1896  1  0.51647867  0.68777446  0.64000541  1
  N  N1897  1  0.66669275  0.68135132  0.72662976  1
  C  C1898  1  0.68204944  0.64471562  0.71678051  1
  H  H1899  1  0.73540249  0.67070352  0.51454877  1
  C  C1900  1  0.55290463  0.50817980  0.58079525  1
  H  H1901  1  0.67321687  0.71001177  0.52554039  1
  H  H1902  1  0.74790075  0.69526585  0.63812631  1
  H  H1903  1  0.58596772  0.73603503  0.69329513  1
  H  H1904  1  0.70099864  0.50597494  0.61822771  1
  C  C1905  1  0.71031897  0.50129174  0.72795173  1
  C  C1906  1  0.74756735  0.61464460  0.66078378  1
  N  N1907  1  0.74418367  0.50441505  0.69223351  1
  H  H1908  1  0.61403937  0.52533877  0.73289863  1
  N  N1909  1  0.50654199  0.72607085  0.70827112  1
  H  H1910  1  0.51501493  0.67299516  0.54005226  1
  H  H1911  1  0.66813084  0.61628679  0.73553106  1
  H  H1912  1  0.69575700  0.52682746  0.74911932  1
  C  C1913  1  0.51653407  0.68766899  0.50172056  1
  C  C1914  1  0.76598258  0.54249692  0.67509872  1
  H  H1915  1  0.83585910  0.51836494  0.64621606  1
  C  C1916  1  0.77009180  0.68278070  0.52784001  1
  C  C1917  1  0.79609741  0.62186632  0.64363595  1
  C  C1918  1  0.77495543  0.72404759  0.54273286  1
  H  H1919  1  0.80984025  0.65326110  0.63911165  1
  C  C1920  1  0.81320056  0.54586792  0.65530118  1
  C  C1921  1  0.82641694  0.58773235  0.64358887  1
  N  N1922  1  0.87795671  0.59248101  0.65100348  1
  C  C1923  1  0.95013456  0.62271953  0.65202681  1
  C  C1924  1  0.91208087  0.56655279  0.66926227  1
  H  H1925  1  0.90716294  0.53690602  0.68437329  1
  N  N1926  1  0.95543978  0.58487766  0.67046651  1
  C  C1927  1  0.90164966  0.62833466  0.64116252  1
  C  C1928  1  0.94432015  0.70905464  0.60194194  1
  H  H1929  1  0.93230227  0.69376449  0.63816550  1
  N  N1930  1  0.91213959  0.71946828  0.56239234  1
  C  C1931  1  0.86218934  0.70623391  0.55706745  1
  C  C1932  1  0.85200209  0.66539317  0.54326904  1
  C  C1933  1  0.80553014  0.65196004  0.52872114  1
  C  C1934  1  0.97009842  0.59953872  0.54746315  1
  H  H1935  1  0.88009022  0.64210561  0.54451592  1
  H  H1936  1  0.88159105  0.65501396  0.63084998  1
  C  C1937  1  0.96735146  0.52190807  0.54233813  1
  N  N1938  1  0.96033527  0.56440310  0.52586091  1
  H  H1939  1  0.96964709  0.69368312  0.69646307  1
  H  H1940  1  0.98038619  0.64235426  0.64498901  1
  C  C1941  1  0.82341563  0.73449260  0.55474978  1
  C  C1942  1  0.98118542  0.51811596  0.59358806  1
  H  H1943  1  0.85346548  0.57531645  0.55742749  1
  H  H1944  1  0.78405207  0.66090995  0.71431733  1
  H  H1945  1  0.98718970  0.59986609  0.58512084  1
  C  C1946  1  0.83092310  0.57798929  0.52332546  1
  N  N1947  1  0.80586294  0.61065782  0.50613360  1
  H  H1948  1  0.98713395  0.54379433  0.62058376  1
  C  C1949  1  0.93976925  0.74088075  0.52980947  1
  H  H1950  1  0.95816372  0.66366620  0.51438808  1
  N  N1951  1  0.98923641  0.72093510  0.59263044  1
  C  C1952  1  0.95135411  0.63046818  0.51426004  1
  C  C1953  1  0.98779975  0.74204259  0.54723259  1
  C  C1954  1  0.96909226  0.68746557  0.73677979  1
  H  H1955  1  0.77926906  0.74574708  0.71608807  1
  H  H1956  1  0.84552712  0.54845376  0.74039449  1
  C  C1957  1  0.80302050  0.72390294  0.73559487  1
  C  C1958  1  0.80941308  0.68218805  0.73141338  1
  N  N1959  1  0.73378415  0.75083687  0.54473943  1
  N  N1960  1  0.54811918  0.98084751  0.50440027  1
  C  C1961  1  0.72328949  0.99568370  0.60823166  1
  H  H1962  1  0.51669506  0.81897521  0.70183799  1
  H  H1963  1  0.60038301  0.97670374  0.69893537  1
  C  C1964  1  0.59267304  0.97829804  0.65859319  1
  H  H1965  1  0.55636169  0.78101370  0.65284455  1
  H  H1966  1  0.52609899  0.92147891  0.57155823  1
  N  N1967  1  0.53460845  0.81540699  0.56660248  1
  C  C1968  1  0.54628529  0.94599564  0.58707756  1
  C  C1969  1  0.52890532  0.87914252  0.65779038  1
  H  H1970  1  0.59669052  0.81835194  0.62709316  1
  C  C1971  1  0.57946709  0.82689453  0.58922692  1
  N  N1972  1  0.60142416  0.85061737  0.55793613  1
  Zn  Zn1973  1  0.67255469  0.86390679  0.56625627  1
  C  C1974  1  0.68456777  0.89040315  0.67347092  1
  N  N1975  1  0.69882209  0.86496598  0.63820798  1
  H  H1976  1  0.65528483  0.91451244  0.67342743  1
  C  C1977  1  0.56609901  0.94493880  0.63689843  1
  N  N1978  1  0.71320212  0.88487144  0.71607306  1
  N  N1979  1  0.55983943  0.90989224  0.66870620  1
  N  N1980  1  0.69050228  0.80678702  0.54987767  1
  C  C1981  1  0.53751187  0.84814798  0.69347301  1
  C  C1982  1  0.58706298  0.89830344  0.71151099  1
  N  N1983  1  0.57239432  0.86148868  0.72475561  1
  H  H1984  1  0.65443733  0.95965231  0.57655046  1
  H  H1985  1  0.70249317  0.96563293  0.71833854  1
  C  C1986  1  0.66734416  0.95137775  0.53756512  1
  N  N1987  1  0.67640732  0.91347036  0.52359950  1
  C  C1988  1  0.65992964  0.77652575  0.53782582  1
  H  H1989  1  0.61149964  0.91787165  0.73243477  1
  C  C1990  1  0.51948582  0.77394593  0.63895650  1
  C  C1991  1  0.73561562  0.79330261  0.55058433  1
  H  H1992  1  0.62055306  0.77933642  0.53856705  1
  C  C1993  1  0.53046546  0.83541882  0.52317682  1
  C  C1994  1  0.55811380  0.98116689  0.55868887  1
  C  C1995  1  0.73493491  0.84189374  0.65760768  1
  H  H1996  1  0.69009430  0.80041117  0.72918050  1
  C  C1997  1  0.50302658  0.78527047  0.59000315  1
  H  H1998  1  0.50108825  0.87995921  0.62814913  1
  C  C1999  1  0.74317147  0.85362556  0.70848463  1
  H  H2000  1  0.74612942  0.94180909  0.65994737  1
  C  C2001  1  0.57342927  0.85793687  0.51621503  1
  H  H2002  1  0.52779054  0.75700408  0.50718920  1
  H  H2003  1  0.51047337  0.92199993  0.50132880  1
  C  C2004  1  0.75337908  0.96622653  0.63145952  1
  H  H2005  1  0.75741690  0.82125323  0.63339006  1
  H  H2006  1  0.77088620  0.84618896  0.73540889  1
  C  C2007  1  0.86830083  0.83079248  0.52678347  1
  N  N2008  1  0.82419921  0.84335721  0.51261764  1
  H  H2009  1  0.96654351  0.76326327  0.66978181  1
  H  H2010  1  0.83063628  0.76581471  0.56145464  1
  C  C2011  1  0.92297266  0.97911123  0.54922055  1
  C  C2012  1  0.97937774  0.78099909  0.70306330  1
  H  H2013  1  0.96843794  0.78739502  0.59993211  1
  H  H2014  1  0.76926202  0.80948800  0.55431442  1
  N  N2015  1  0.85001542  0.88721516  0.56758715  1
  H  H2016  1  0.95350761  0.98538652  0.73058450  1
  H  H2017  1  0.81834342  0.97564824  0.72006651  1
  N  N2018  1  0.85024999  0.92320704  0.68885105  1
  Zn  Zn2019  1  0.85474435  0.93717136  0.61413315  1
  N  N2020  1  0.99710252  0.88343063  0.58310341  1
  C  C2021  1  0.97838740  0.81921574  0.60350755  1
  C  C2022  1  0.79252746  0.99447448  0.56738610  1
  C  C2023  1  0.83526518  0.94584185  0.72798730  1
  H  H2024  1  0.92518610  0.95271533  0.52278022  1
  C  C2025  1  0.81360961  0.87920872  0.53817583  1
  C  C2026  1  0.98512378  0.84571998  0.56444452  1
  N  N2027  1  0.89954298  0.97919351  0.59317503  1
  C  C2028  1  0.88343832  0.85744162  0.56575892  1
  N  N2029  1  0.79527587  0.96783058  0.60567868  1
  C  C2030  1  0.85668067  0.88495801  0.70619844  1
  H  H2031  1  0.98419408  0.98675685  0.64326419  1
  N  N2032  1  0.98962907  0.83932146  0.64712824  1
  H  H2033  1  0.78265918  0.89946404  0.53414598  1
  H  H2034  1  0.84728196  0.80529985  0.72297288  1
  H  H2035  1  0.86691662  0.85684041  0.68637362  1
  C  C2036  1  0.99190606  0.82191969  0.69664500  1
  H  H2037  1  0.91320014  0.86001234  0.59144204  1
  C  C2038  1  0.99986348  0.87952141  0.63266461  1
  H  H2039  1  0.97540109  0.84367979  0.52525955  1
  H  H2040  1  0.88767114  0.80487247  0.50952352  1
  C  C2041  1  0.68069455  0.67032257  0.87708556  1
  C  C2042  1  0.60859748  0.69276546  0.89511229  1
  N  N2043  1  0.63713151  0.68117222  0.85765955  1
  N  N2044  1  0.63304417  0.69038863  0.94119772  1
  C  C2045  1  0.67786364  0.67724129  0.93012861  1
  H  H2046  1  0.70424470  0.67405043  0.96114893  1
  H  H2047  1  0.71170574  0.66690830  0.85143750  1
  C  C2048  1  0.54634735  0.52418458  0.83122334  1
  Zn  Zn2049  1  0.62656718  0.69094952  0.78635687  1
  H  H2050  1  0.57193272  0.70396001  0.89026676  1
  H  H2051  1  0.51523341  0.53573889  0.85180432  1
  N  N2052  1  0.55856304  0.53789048  0.78440377  1
  C  C2053  1  0.51646709  0.69199477  0.77885725  1
  C  C2054  1  0.61755792  0.70189705  0.99251577  1
  N  N2055  1  0.56002748  0.70382958  0.76086058  1
  C  C2056  1  0.60006388  0.51880809  0.76898954  1
  H  H2057  1  0.52458965  0.60761492  0.99521822  1
  C  C2058  1  0.51266484  0.63479990  0.97448077  1
  H  H2059  1  0.55553716  0.73945946  0.97369725  1
  N  N2060  1  0.50762299  0.63484275  0.92436295  1
  H  H2061  1  0.51525187  0.67138297  0.81069359  1
  C  C2062  1  0.53311318  0.56768708  0.75291315  1
  C  C2063  1  0.76565902  0.72885233  0.89466959  1
  N  N2064  1  0.89052059  0.52783161  0.80246615  1
  H  H2065  1  0.78100250  0.71736323  0.86009345  1
  H  H2066  1  0.94190472  0.53858527  0.86873309  1
  C  C2067  1  0.91695182  0.54828359  0.83891780  1
  N  N2068  1  0.90691301  0.58736904  0.83152952  1
  C  C2069  1  0.87715651  0.59439297  0.79335011  1
  C  C2070  1  0.97372875  0.70641711  0.81557408  1
  C  C2071  1  0.85149492  0.67493550  0.90394047  1
  H  H2072  1  0.83089471  0.66865274  0.86935475  1
  N  N2073  1  0.89532808  0.66344547  0.91420182  1
  Zn  Zn2074  1  0.94183061  0.62872652  0.87200392  1
  N  N2075  1  0.83328690  0.69847753  0.94324799  1
  N  N2076  1  0.96397505  0.66720357  0.81611535  1
  C  C2077  1  0.90725455  0.67734472  0.96108494  1
  H  H2078  1  0.95426308  0.56371432  0.96516507  1
  C  C2079  1  0.78744706  0.72082677  0.94264866  1
  H  H2080  1  0.88405829  0.70278208  0.82275900  1
  H  H2081  1  0.87092977  0.62639429  0.77648091  1
  C  C2082  1  0.86863759  0.55533372  0.77292497  1
  N  N2083  1  0.97654826  0.72109360  0.76729730  1
  C  C2084  1  0.96048528  0.65330571  0.76804582  1
  H  H2085  1  0.97499757  0.72337813  0.85231500  1
  C  C2086  1  0.85615114  0.70035852  0.79399498  1
  C  C2087  1  0.98693585  0.56814410  0.94171265  1
  N  N2088  1  0.84161074  0.66899895  0.76735685  1
  C  C2089  1  0.86644069  0.69850936  0.98033864  1
  N  N2090  1  0.99516672  0.59614118  0.90735957  1
  N  N2091  1  0.83309063  0.73433793  0.77558011  1
  C  C2092  1  0.77225215  0.73558238  0.98877672  1
  H  H2093  1  0.94883526  0.62324476  0.75719410  1
  H  H2094  1  0.94401857  0.67545758  0.97447689  1
  H  H2095  1  0.52442222  0.89936405  0.95425374  1
  C  C2096  1  0.72571959  0.77144199  0.80106893  1
  C  C2097  1  0.72677123  0.75717852  0.89568706  1
  C  C2098  1  0.70778469  0.77354477  0.94153326  1
  N  N2099  1  0.70838420  0.77335126  0.84810529  1
  H  H2100  1  0.53709024  0.98601383  0.80970392  1
  C  C2101  1  0.71361093  0.97710815  0.79806378  1
  C  C2102  1  0.69195075  0.79268683  0.77108767  1
  H  H2103  1  0.57444765  0.83234676  0.90974741  1
  C  C2104  1  0.56039021  0.86062348  0.89226705  1
  C  C2105  1  0.66393638  0.79526004  0.84854684  1
  N  N2106  1  0.65648716  0.80528338  0.80184840  1
  Zn  Zn2107  1  0.59425788  0.83736545  0.78690359  1
  N  N2108  1  0.56675036  0.86965799  0.84296221  1
  N  N2109  1  0.52745909  0.92024390  0.87833371  1
  C  C2110  1  0.55060594  0.90682984  0.83399506  1
  H  H2111  1  0.63967811  0.80206551  0.87909409  1
  H  H2112  1  0.68035366  0.79877135  0.94277910  1
  C  C2113  1  0.53682272  0.89392598  0.91631222  1
  H  H2114  1  0.55070423  0.92399967  0.79714451  1
  C  C2115  1  0.71825640  0.96050741  0.84657192  1
  C  C2116  1  0.71947529  0.89000343  0.81155050  1
  C  C2117  1  0.71744748  0.91765881  0.85377631  1
  H  H2118  1  0.72188556  0.85703744  0.81647215  1
  H  H2119  1  0.56651933  0.98633119  0.91928089  1
  C  C2120  1  0.56622877  0.99239391  0.95898159  1
  N  N2121  1  0.70899157  0.90313768  0.90502985  1
  H  H2122  1  0.72592688  0.97931541  0.87904928  1
  C  C2123  1  0.73099225  0.76200933  0.98660360  1
  H  H2124  1  0.52105384  0.79880655  0.99262472  1
  C  C2125  1  0.68229711  0.91746809  0.94483244  1
  H  H2126  1  0.65760716  0.94388291  0.94359691  1
  N  N2127  1  0.68940183  0.89513256  0.98512386  1
  C  C2128  1  0.50972543  0.98651768  0.84002955  1
  C  C2129  1  0.71499933  0.90896650  0.76238344  1
  C  C2130  1  0.73268101  0.87010599  0.92257451  1
  C  C2131  1  0.72142550  0.86465568  0.97329093  1
  N  N2132  1  0.60676909  0.98511500  0.98551939  1
  C  C2133  1  0.70842572  0.95132941  0.75497371  1
  C  C2134  1  0.85838918  0.79405203  0.96142077  1
  H  H2135  1  0.80263908  0.99994108  0.80834160  1
  H  H2136  1  0.76116171  0.75811716  0.79131108  1
  H  H2137  1  0.83968805  0.88337217  0.85467825  1
  C  C2138  1  0.84404297  0.84629948  0.78649373  1
  H  H2139  1  0.99570370  0.81764005  0.89313819  1
  H  H2140  1  0.83668624  0.88844819  0.93108971  1
  C  C2141  1  0.84498601  0.77940001  0.84846389  1
  N  N2142  1  0.84805908  0.82391802  0.92486191  1
  H  H2143  1  0.94963804  0.96717102  0.89568420  1
  H  H2144  1  0.89383186  0.96649968  0.78336456  1
  C  C2145  1  0.84626899  0.77326826  0.79530768  1
  C  C2146  1  0.99357624  0.78842342  0.79286545  1
  H  H2147  1  0.84235502  0.75342076  0.87343649  1
  H  H2148  1  0.86570043  0.76339142  0.95074901  1
  C  C2149  1  0.96560926  0.98712371  0.92545869  1
  C  C2150  1  0.98156191  0.76366474  0.75265181  1
  H  H2151  1  0.81782441  0.93053214  0.80851205  1
  H  H2152  1  0.75647524  0.85395939  0.89509288  1
  C  C2153  1  0.88306042  0.99570518  0.80229157  1
  C  C2154  1  0.84804678  0.80837927  0.76403161  1
  C  C2155  1  0.84287079  0.85914859  0.95158004  1
  C  C2156  1  0.82968124  0.92112771  0.77172198  1
  C  C2157  1  0.84435200  0.81888517  0.87138958  1
  C  C2158  1  0.84134232  0.85339072  0.83905751  1
  N  N2159  1  0.84716792  0.88449531  0.75649152  1
