# generated using pymatgen
data_Zn4H60C96N6O25
_symmetry_space_group_name_H-M   'P 1'
_cell_length_a   11.42065537
_cell_length_b   18.47972742
_cell_length_c   39.41885487
_cell_angle_alpha   90.00000000
_cell_angle_beta   90.00000000
_cell_angle_gamma   90.00000000
_symmetry_Int_Tables_number   1
_chemical_formula_structural   Zn4H60C96N6O25
_chemical_formula_sum   'Zn16 H240 C384 N24 O100'
_cell_volume   8319.37290320
_cell_formula_units_Z   4
loop_
 _symmetry_equiv_pos_site_id
 _symmetry_equiv_pos_as_xyz
  1  'x, y, z'
loop_
 _atom_site_type_symbol
 _atom_site_label
 _atom_site_symmetry_multiplicity
 _atom_site_fract_x
 _atom_site_fract_y
 _atom_site_fract_z
 _atom_site_occupancy
  C  C0  1  0.34712090  0.27751640  0.13438393  1
  O  O1  1  0.13201248  0.48014739  0.09805451  1
  O  O2  1  0.26272268  0.03260673  0.08094955  1
  H  H3  1  0.08880086  0.20985342  0.09908201  1
  H  H4  1  0.11554772  0.34386715  0.15801526  1
  Zn  Zn5  1  0.31258618  0.30938222  0.22236163  1
  H  H6  1  0.40319851  0.18598388  0.19077158  1
  C  C7  1  0.30229726  0.17397845  0.23710494  1
  C  C8  1  0.02640266  0.25629733  0.02304200  1
  H  H9  1  0.24347485  0.17914329  0.18158760  1
  H  H10  1  0.45858369  0.01783664  0.05806194  1
  C  C11  1  0.08618958  0.31867964  0.01261063  1
  H  H12  1  0.34860211  0.45551880  0.04390245  1
  C  C13  1  0.40298094  0.45673916  0.06689580  1
  H  H14  1  0.33232559  0.35777115  0.08868553  1
  C  C15  1  0.22039170  0.27186549  0.12677410  1
  C  C16  1  0.14038631  0.33435353  0.13076671  1
  H  H17  1  0.19916931  0.38225421  0.12761441  1
  C  C18  1  0.31824809  0.16385811  0.19956175  1
  C  C19  1  0.20436690  0.08782995  0.08339381  1
  O  O20  1  0.00929012  0.33429993  0.10795428  1
  C  C21  1  0.25235724  0.15176600  0.10327511  1
  H  H22  1  0.47137297  0.10208223  0.00747810  1
  C  C23  1  0.10492540  0.45350388  0.01399718  1
  C  C24  1  0.37030915  0.15526902  0.11243703  1
  C  C25  1  0.40207094  0.34705857  0.14981322  1
  C  C26  1  0.18003655  0.21189955  0.10776007  1
  O  O27  1  0.11132991  0.10170252  0.06674170  1
  C  C28  1  0.44659481  0.40268797  0.12432272  1
  C  C29  1  0.38974218  0.40461236  0.09210508  1
  C  C30  1  0.41845228  0.21750931  0.12838699  1
  H  H31  1  0.04787758  0.33154840  0.08531912  1
  H  H32  1  0.42404017  0.10636704  0.10657771  1
  N  N33  1  0.41256095  0.35342441  0.18268747  1
  H  H34  1  0.06292843  0.20130790  0.02027075  1
  Zn  Zn35  1  0.24776658  0.06848662  0.21969603  1
  C  C36  1  0.03354429  0.38871450  0.01879793  1
  C  C37  1  0.21341772  0.22630152  0.24978554  1
  C  C38  1  0.07176229  0.39470207  0.38907490  1
  H  H39  1  0.10042407  0.13403055  0.42389055  1
  N  N40  1  0.00210554  0.01866865  0.28679105  1
  C  C41  1  0.29596898  0.18534751  0.40299707  1
  O  O42  1  0.17854725  0.36341170  0.49867308  1
  C  C43  1  0.18331132  0.34461239  0.28082269  1
  H  H44  1  0.12571255  0.20363069  0.25621313  1
  N  N45  1  0.44525723  0.07932868  0.26089850  1
  C  C46  1  0.26507710  0.28315138  0.27397479  1
  H  H47  1  0.22301835  0.22468097  0.40946080  1
  O  O48  1  0.09606154  0.37241723  0.27494594  1
  C  C49  1  0.27171861  0.11085704  0.40103050  1
  O  O50  1  0.44284220  0.46657971  0.34990365  1
  O  O51  1  0.25475799  0.04812876  0.32422510  1
  C  C52  1  0.38720804  0.28198273  0.29291464  1
  O  O53  1  0.06373615  0.27794555  0.36646912  1
  C  C54  1  0.10564373  0.42679374  0.35769540  1
  C  C55  1  0.13798568  0.09659569  0.40363315  1
  C  C56  1  0.44342916  0.28501464  0.39930100  1
  C  C57  1  0.03858648  0.31560061  0.39124479  1
  H  H58  1  0.07862314  0.40464198  0.44214490  1
  H  H59  1  0.06059437  0.02456225  0.47091384  1
  O  O60  1  0.06542205  0.17766516  0.48410828  1
  C  C61  1  0.49612889  0.15605599  0.38806941  1
  H  H62  1  0.08516698  0.10819084  0.37963919  1
  H  H63  1  0.28802372  0.02347004  0.34310457  1
  C  C64  1  0.39458784  0.14709214  0.25906881  1
  Zn  Zn65  1  0.21397262  0.28398032  0.32693898  1
  O  O66  1  0.43391225  0.33641848  0.30244520  1
  H  H67  1  0.12973957  0.04066502  0.41256446  1
  H  H68  1  0.10384789  0.39466343  0.33404735  1
  C  C69  1  0.35187031  0.05548196  0.39236202  1
  C  C70  1  0.44514156  0.20074667  0.28339487  1
  H  H71  1  0.45918754  0.24789875  0.49086779  1
  O  O72  1  0.01793393  0.29122446  0.41971905  1
  H  H73  1  0.31865259  0.05005336  0.31012752  1
  C  C74  1  0.41248853  0.20589095  0.39743765  1
  C  C75  1  0.07815606  0.43576761  0.41834184  1
  O  O76  1  0.01210426  0.14458693  0.28369192  1
  C  C77  1  0.43479915  0.00961675  0.25047533  1
  O  O78  1  0.38262190  0.33271197  0.40794024  1
  H  H79  1  0.48486060  0.42271515  0.33706281  1
  C  C80  1  0.46579733  0.08427006  0.38218339  1
  C  C81  1  0.00478159  0.01028677  0.25078759  1
  H  H82  1  0.48221310  0.13422258  0.73036005  1
  C  C83  1  0.44234852  0.11906657  0.65269568  1
  C  C84  1  0.24042775  0.45684323  0.61691493  1
  O  O85  1  0.03218630  0.43894496  0.60561087  1
  O  O86  1  0.16582967  0.24536420  0.67335193  1
  C  C87  1  0.24298299  0.29959532  0.57310591  1
  H  H88  1  0.28742833  0.35182734  0.56867545  1
  C  C89  1  0.46842389  0.10695200  0.56407165  1
  C  C90  1  0.44723335  0.45231688  0.62996618  1
  C  C91  1  0.32404018  0.36235614  0.65535213  1
  O  O92  1  0.22138099  0.41483426  0.71693729  1
  C  C93  1  0.44375535  0.24348364  0.55816814  1
  C  C94  1  0.34263486  0.10116684  0.56897337  1
  O  O95  1  0.37645576  0.17124272  0.65243926  1
  H  H96  1  0.31599556  0.31442473  0.67233052  1
  C  C97  1  0.15330551  0.15689634  0.58236436  1
  C  C98  1  0.17916132  0.37829201  0.74118296  1
  O  O99  1  0.07321128  0.14369234  0.67957734  1
  Zn  Zn100  1  0.22727044  0.07936227  0.68172324  1
  C  C101  1  0.43298230  0.39148627  0.65227454  1
  C  C102  1  0.28600399  0.03275491  0.57169160  1
  C  C103  1  0.09700389  0.08676105  0.58351246  1
  H  H104  1  0.06348694  0.33998187  0.57871958  1
  C  C105  1  0.16869832  0.02436251  0.57720831  1
  H  H106  1  0.04713693  0.35515838  0.66557275  1
  H  H107  1  0.23370070  0.16855281  0.71651375  1
  C  C108  1  0.27452217  0.16590970  0.57305542  1
  O  O109  1  0.48388954  0.30288122  0.55489459  1
  C  C110  1  0.07463631  0.21115537  0.67801565  1
  C  C111  1  0.07966098  0.22117344  0.58524087  1
  C  C112  1  0.32046727  0.23983662  0.57019627  1
  H  H113  1  0.13879026  0.36803713  0.63695846  1
  O  O114  1  0.40292380  0.06119095  0.66396138  1
  C  C115  1  0.23338005  0.39409293  0.63765988  1
  H  H116  1  0.25007338  0.43414860  0.52659055  1
  O  O117  1  0.28535456  0.13455808  0.73195866  1
  C  C118  1  0.05201327  0.45994423  0.52306230  1
  C  C119  1  0.12197996  0.29303737  0.57863946  1
  O  O120  1  0.07647630  0.36333646  0.74140257  1
  C  C121  1  0.35471150  0.49012210  0.61099003  1
  C  C122  1  0.15935470  0.41701950  0.51654544  1
  C  C123  1  0.13484603  0.47156126  0.59679925  1
  H  H124  1  0.00868756  0.05062065  0.51175216  1
  H  H125  1  0.44054927  0.45174968  0.97037904  1
  C  C126  1  0.23198192  0.22823273  0.84872582  1
  C  C127  1  0.22508250  0.06184896  0.78296884  1
  C  C128  1  0.14346206  0.04085526  0.80669204  1
  C  C129  1  0.46601009  0.41318971  0.94957739  1
  C  C130  1  0.07697582  0.49098935  0.83428032  1
  C  C131  1  0.09639581  0.43378735  0.85768959  1
  C  C132  1  0.05963032  0.12525466  0.94216347  1
  H  H133  1  0.05976057  0.06790015  0.80957097  1
  H  H134  1  0.45924512  0.01103097  0.85725857  1
  C  C135  1  0.27616039  0.28190639  0.82360342  1
  C  C136  1  0.34235521  0.03900815  0.78132539  1
  C  C137  1  0.48310060  0.19281716  0.78010195  1
  C  C138  1  0.19180171  0.11844844  0.75895198  1
  C  C139  1  0.20602930  0.31055351  0.79745115  1
  H  H140  1  0.11399868  0.30183683  0.79927144  1
  N  N141  1  0.46711486  0.28295120  0.85290547  1
  O  O142  1  0.11285279  0.26939522  0.94320539  1
  O  O143  1  0.13561670  0.20793155  0.85281432  1
  O  O144  1  0.33716756  0.36207238  0.94700765  1
  H  H145  1  0.41001601  0.22626422  0.77144658  1
  C  C146  1  0.17189994  0.45866772  0.88649319  1
  H  H147  1  0.29980363  0.19926109  0.86444788  1
  H  H148  1  0.29882241  0.38581193  0.96646266  1
  C  C149  1  0.02556992  0.05229037  0.93917724  1
  C  C150  1  0.39678877  0.30517832  0.82579130  1
  H  H151  1  0.36031211  0.45128307  0.88120991  1
  C  C152  1  0.37139132  0.37066278  0.77281641  1
  C  C153  1  0.45978713  0.45699572  0.88615872  1
  H  H154  1  0.04657845  0.31955841  0.87331091  1
  H  H155  1  0.15083086  0.13889114  0.94494300  1
  Zn  Zn156  1  0.19240126  0.36267653  0.91334991  1
  C  C157  1  0.00676169  0.25438317  0.93883047  1
  C  C158  1  0.25240351  0.35343126  0.77190600  1
  O  O159  1  0.09967338  0.14728710  0.75927193  1
  C  C160  1  0.44514523  0.34600071  0.79878777  1
  C  C161  1  0.03331046  0.36554407  0.85666439  1
  H  H162  1  0.39803050  0.05726339  0.76100412  1
  C  C163  1  0.49981430  0.46390083  0.92016736  1
  H  H164  1  0.41215298  0.40956164  0.75503935  1
  O  O165  1  0.22960066  0.00711516  0.93864729  1
  H  H166  1  0.13474607  0.49330818  0.75419726  1
  O  O167  1  0.20803252  0.45354907  0.99885656  1
  H  H168  1  0.16920522  0.31307474  0.99875991  1
  C  C169  1  0.39542262  0.87183665  0.22972718  1
  O  O170  1  0.43109605  0.56494880  0.01543500  1
  Zn  Zn171  1  0.00269737  0.87767455  0.01991868  1
  C  C172  1  0.17292601  0.72070403  0.04730948  1
  O  O173  1  0.00029707  0.98250956  0.02437726  1
  H  H174  1  0.36154652  0.88433883  0.15986248  1
  C  C175  1  0.18596224  0.66826596  0.07261939  1
  C  C176  1  0.16617163  0.54027879  0.09147966  1
  O  O177  1  0.18714562  0.84345635  0.03271711  1
  O  O178  1  0.07963901  0.93631950  0.12917759  1
  H  H179  1  0.29186739  0.82583216  0.13936742  1
  H  H180  1  0.21429320  0.68391214  0.09866831  1
  C  C181  1  0.15067282  0.70250826  0.01335729  1
  H  H182  1  0.30480018  0.87131881  0.22131402  1
  C  C183  1  0.13034061  0.62979193  0.00505575  1
  Zn  Zn184  1  0.24545892  0.91921172  0.10479974  1
  H  H185  1  0.24458721  0.54455333  0.11065881  1
  N  N186  1  0.04336354  0.51515348  0.02287495  1
  C  C187  1  0.11516267  0.57740312  0.03101442  1
  H  H188  1  0.41440932  0.76235621  0.20553289  1
  C  C189  1  0.19734143  0.79819285  0.05617814  1
  O  O190  1  0.44434174  0.91800705  0.10232972  1
  C  C191  1  0.15194189  0.59647261  0.06465801  1
  H  H192  1  0.11340935  0.89218950  0.18797879  1
  O  O193  1  0.28787635  0.85662929  0.15796500  1
  O  O194  1  0.22621510  0.81865942  0.08526731  1
  C  C195  1  0.45664541  0.80813248  0.22173429  1
  C  C196  1  0.47566458  0.70456810  0.00739697  1
  C  C197  1  0.48360789  0.57230275  0.04390576  1
  C  C198  1  0.47961205  0.51600570  0.06988734  1
  C  C199  1  0.07199034  0.94031081  0.19968124  1
  C  C200  1  0.02447444  0.98902361  0.14209286  1
  C  C201  1  0.07050876  0.95385942  0.23418845  1
  C  C202  1  0.02040705  0.99146228  0.17827560  1
  C  C203  1  0.45254507  0.93050121  0.24645569  1
  H  H204  1  0.23749532  0.50489825  0.00610743  1
  O  O205  1  0.44281365  0.52228117  0.20342317  1
  O  O206  1  0.49646183  0.95383670  0.15228347  1
  H  H207  1  0.08441699  0.55441766  0.30958191  1
  C  C208  1  0.20846273  0.76553071  0.38736516  1
  H  H209  1  0.41419410  0.84430906  0.32228862  1
  C  C210  1  0.46898287  0.62742064  0.45128644  1
  C  C211  1  0.14000682  0.84793606  0.44343633  1
  C  C212  1  0.39656402  0.93780289  0.37387929  1
  C  C213  1  0.23461965  0.72182489  0.35946810  1
  C  C214  1  0.35979346  0.80095551  0.48427700  1
  C  C215  1  0.39721903  0.57255752  0.39842986  1
  H  H216  1  0.32404066  0.55064009  0.38132453  1
  H  H217  1  0.33909222  0.71992926  0.31477080  1
  O  O218  1  0.11579139  0.91540285  0.29743081  1
  H  H219  1  0.03458267  0.75897436  0.46040991  1
  C  C220  1  0.43932481  0.65838719  0.48488151  1
  O  O221  1  0.33823762  0.64861038  0.49492513  1
  H  H222  1  0.02300114  0.53270774  0.46904596  1
  C  C223  1  0.21987295  0.88237274  0.42158247  1
  H  H224  1  0.06856828  0.87253626  0.35714506  1
  C  C225  1  0.33706809  0.86792026  0.36969543  1
  C  C226  1  0.06859833  0.66627672  0.40599085  1
  H  H227  1  0.11426342  0.87641554  0.46583890  1
  C  C228  1  0.11849327  0.73775045  0.41106277  1
  C  C229  1  0.37813201  0.60943022  0.42827538  1
  N  N230  1  0.12596113  0.62236996  0.38244205  1
  H  H231  1  0.28599807  0.62395149  0.43434347  1
  H  H232  1  0.21875649  0.50075517  0.30860926  1
  C  C233  1  0.16610281  0.53677937  0.32492219  1
  H  H234  1  0.16485466  0.50711080  0.47096158  1
  H  H235  1  0.40943946  0.77385890  0.46249423  1
  C  C236  1  0.24963422  0.83990587  0.39253226  1
  C  C237  1  0.11496953  0.54595580  0.38683384  1
  C  C238  1  0.10774314  0.54111258  0.45475197  1
  C  C239  1  0.09127447  0.77904544  0.44039156  1
  C  C240  1  0.09953377  0.51174373  0.41840120  1
  O  O241  1  0.22199526  0.61534635  0.32887466  1
  C  C242  1  0.12882721  0.50066957  0.35766496  1
  H  H243  1  0.17549323  0.86175667  0.25197294  1
  C  C244  1  0.35725337  0.82108751  0.34111218  1
  H  H245  1  0.13077196  0.59834747  0.45875846  1
  C  C246  1  0.19054984  0.64933036  0.35548101  1
  C  C247  1  0.31395862  0.75294566  0.33575766  1
  H  H248  1  0.27199332  0.77355719  0.48445051  1
  N  N249  1  0.33094590  0.97982872  0.39496258  1
  C  C250  1  0.15086826  0.91509865  0.25889650  1
  C  C251  1  0.04170776  0.96469826  0.30673435  1
  H  H252  1  0.33998736  0.85859422  0.47793292  1
  C  C253  1  0.27384264  0.95636794  0.42488662  1
  H  H254  1  0.45290821  0.54706511  0.30047904  1
  O  O255  1  0.26339188  0.98605500  0.45148791  1
  C  C256  1  0.01247407  0.91619985  0.36489416  1
  H  H257  1  0.43713761  0.97491367  0.44514649  1
  O  O258  1  0.49074331  0.95207077  0.35803832  1
  H  H259  1  0.23151771  0.94771079  0.26472411  1
  C  C260  1  0.23700041  0.79714046  0.68692513  1
  C  C261  1  0.37094301  0.61049961  0.74044866  1
  H  H262  1  0.10867818  0.66440778  0.73877164  1
  Zn  Zn263  1  0.31926741  0.59862027  0.54940100  1
  O  O264  1  0.45434809  0.85669496  0.63585379  1
  H  H265  1  0.34219199  0.98521892  0.56994847  1
  C  C266  1  0.21150257  0.85979943  0.70496231  1
  O  O267  1  0.10184962  0.81593190  0.56601740  1
  C  C268  1  0.30313857  0.67188614  0.68257483  1
  C  C269  1  0.38540148  0.55696409  0.59586092  1
  H  H270  1  0.21908318  0.67031280  0.66513822  1
  O  O271  1  0.10906672  0.91472412  0.65752095  1
  C  C272  1  0.41921492  0.79552456  0.51958105  1
  C  C273  1  0.37109448  0.82679187  0.54822606  1
  H  H274  1  0.13045654  0.96979436  0.57692358  1
  H  H275  1  0.21471041  0.79624179  0.65948149  1
  H  H276  1  0.00195373  0.83729204  0.69128059  1
  C  C277  1  0.01464670  0.68050458  0.73728282  1
  C  C278  1  0.15735190  0.92363778  0.68567518  1
  H  H279  1  0.07100486  0.91712486  0.53148894  1
  C  C280  1  0.39410682  0.86174942  0.61093827  1
  C  C281  1  0.43250041  0.82342583  0.57885297  1
  C  C282  1  0.02591362  0.78204069  0.54605198  1
  Zn  Zn283  1  0.10018299  0.84642325  0.61713142  1
  C  C284  1  0.28438069  0.73965766  0.70505162  1
  O  O285  1  0.07477016  0.58798419  0.67437513  1
  H  H286  1  0.28894599  0.86007304  0.54524984  1
  Zn  Zn287  1  0.17858051  0.51493207  0.70251089  1
  C  C288  1  0.30480866  0.61779101  0.60133362  1
  O  O289  1  0.29235343  0.88904512  0.60904915  1
  C  C290  1  0.48213865  0.56781981  0.74472875  1
  O  O291  1  0.32245442  0.60581526  0.69984822  1
  O  O292  1  0.29202371  0.67642659  0.61152394  1
  H  H293  1  0.38235478  0.67191669  0.66444804  1
  O  O294  1  0.16119319  0.98320911  0.70030523  1
  C  C295  1  0.31879875  0.73891235  0.73958288  1
  C  C296  1  0.24599639  0.86735986  0.73800174  1
  C  C297  1  0.05652441  0.51691769  0.54894609  1
  O  O298  1  0.00796695  0.71995203  0.54931909  1
  N  N299  1  0.15265653  0.51455305  0.56990768  1
  H  H300  1  0.03666321  0.61258456  0.59500520  1
  H  H301  1  0.47224798  0.51607278  0.69519445  1
  H  H302  1  0.16404756  0.63737504  0.90279934  1
  H  H303  1  0.14101936  0.73324512  0.79049749  1
  C  C304  1  0.48664081  0.63576178  0.80084999  1
  C  C305  1  0.34996732  0.66456345  0.90819849  1
  O  O306  1  0.22476849  0.51132380  0.89338357  1
  H  H307  1  0.25983234  0.83640671  0.80668215  1
  H  H308  1  0.08895554  0.75505787  0.88986059  1
  C  C309  1  0.04962970  0.74912101  0.79303945  1
  C  C310  1  0.40718151  0.59982747  0.91583236  1
  H  H311  1  0.36533097  0.63420097  0.97589703  1
  C  C312  1  0.44847691  0.63222804  0.99118922  1
  C  C313  1  0.30049526  0.80801458  0.75476824  1
  O  O314  1  0.38097849  0.74696163  0.80856233  1
  C  C315  1  0.39001430  0.79123011  0.88979101  1
  Zn  Zn316  1  0.40833656  0.87652459  0.96077475  1
  O  O317  1  0.11412551  0.88511170  0.87081128  1
  C  C318  1  0.22521776  0.68234436  0.90308159  1
  N  N319  1  0.31523865  0.91472682  0.85881883  1
  H  H320  1  0.05706171  0.80643979  0.79335868  1
  C  C321  1  0.37648912  0.99036374  0.80634431  1
  C  C322  1  0.29414517  0.96152017  0.83078907  1
  C  C323  1  0.07886823  0.95542507  0.85173529  1
  C  C324  1  0.45799325  0.77364804  0.99059759  1
  C  C325  1  0.18716351  0.74830542  0.89301271  1
  H  H326  1  0.13137864  0.53955763  0.83407860  1
  C  C327  1  0.22278821  0.87187656  0.87030245  1
  H  H328  1  0.06330142  0.99846383  0.87174103  1
  C  C329  1  0.26780520  0.80578902  0.88443211  1
  C  C330  1  0.40986524  0.69178096  0.78842880  1
  H  H331  1  0.40105727  0.85126268  0.79650298  1
  N  N332  1  0.38161887  0.68099078  0.75595669  1
  H  H333  1  0.37339732  0.54334387  0.91537716  1
  H  H334  1  0.10745261  0.93834936  0.94021018  1
  O  O335  1  0.10901039  0.54616282  0.75525326  1
  C  C336  1  0.33107918  0.81147889  0.79233849  1
  H  H337  1  0.06235510  0.65931122  0.95405591  1
  H  H338  1  0.22460542  0.91536808  0.75027537  1
  H  H339  1  0.00984319  0.73695875  0.81784454  1
  C  C340  1  0.42343074  0.92362199  0.87466081  1
  H  H341  1  0.20251207  0.61160990  0.95455341  1
  C  C342  1  0.43465680  0.72368840  0.90206555  1
  C  C343  1  0.11688419  0.61731960  0.96669806  1
  O  O344  1  0.49107439  0.98080374  0.87773653  1
  H  H345  1  0.06391752  0.56513407  0.96432047  1
  H  H346  1  0.49849175  0.67233675  0.85286450  1
  H  H347  1  0.46897307  0.76315607  0.96248739  1
  C  C348  1  0.12747357  0.99870328  0.93904728  1
  C  C349  1  0.17160822  0.98417248  0.82787166  1
  H  H350  1  0.15018227  0.74499320  0.99386121  1
  C  C351  1  0.46633218  0.85558043  0.88839957  1
  H  H352  1  0.30243555  0.58379414  0.75449980  1
  H  H353  1  0.48245375  0.50244292  0.86888320  1
  C  C354  1  0.49448923  0.91658714  0.99899354  1
  H  H355  1  0.04005366  0.89654312  0.75152547  1
  C  C356  1  0.73407185  0.35209620  0.23253313  1
  C  C357  1  0.90387380  0.25884986  0.03443058  1
  O  O358  1  0.61358292  0.07958812  0.20060395  1
  N  N359  1  0.72738924  0.20722551  0.05648051  1
  C  C360  1  0.52078540  0.49148850  0.19096703  1
  C  C361  1  0.86250935  0.46395433  0.03460802  1
  C  C362  1  0.79867828  0.17736593  0.12075175  1
  H  H363  1  0.56828325  0.18227724  0.01053061  1
  C  C364  1  0.73159313  0.33271964  0.04968409  1
  H  H365  1  0.75654706  0.10225923  0.22454982  1
  C  C366  1  0.85319556  0.32793382  0.04164669  1
  H  H367  1  0.79454087  0.10078829  0.03200800  1
  C  C368  1  0.71158266  0.12736502  0.10488482  1
  C  C369  1  0.74161801  0.46456814  0.04535801  1
  C  C370  1  0.91736265  0.39528598  0.03179749  1
  O  O371  1  0.83674635  0.17850116  0.14868439  1
  H  H372  1  0.84149467  0.21766339  0.10366603  1
  C  C373  1  0.95522341  0.04712203  0.19336576  1
  C  C374  1  0.67461092  0.14502859  0.07038577  1
  C  C375  1  0.65933221  0.27086969  0.05790869  1
  H  H376  1  0.54939814  0.26662981  0.15929709  1
  C  C377  1  0.67420284  0.40246396  0.05053118  1
  O  O378  1  0.96693243  0.03429991  0.12362546  1
  C  C379  1  0.94265470  0.05576445  0.22793975  1
  C  C380  1  0.83160280  0.19450034  0.03948943  1
  H  H381  1  0.58435011  0.40796410  0.05965331  1
  C  C382  1  0.58535842  0.10329910  0.05336841  1
  O  O383  1  0.87515657  0.12860232  0.03118102  1
  Zn  Zn384  1  0.95514652  0.03173981  0.07097849  1
  O  O385  1  0.79529569  0.30588760  0.22168726  1
  C  C386  1  0.65438364  0.06722048  0.11832462  1
  C  C387  1  0.84968133  0.11704062  0.23426462  1
  C  C388  1  0.54919659  0.22921988  0.13793266  1
  H  H389  1  0.67708540  0.04359788  0.14260151  1
  H  H390  1  0.57752061  0.04935909  0.18413117  1
  C  C391  1  0.56178939  0.12010128  0.01536310  1
  Zn  Zn392  1  0.59847374  0.38669297  0.20093457  1
  H  H393  1  0.90484355  0.08094001  0.17662154  1
  C  C394  1  0.52732086  0.04838994  0.07154959  1
  C  C395  1  0.56168536  0.02904920  0.10438948  1
  H  H396  1  0.60631118  0.24895313  0.11595859  1
  H  H397  1  0.57850266  0.17559528  0.14701238  1
  H  H398  1  0.88170704  0.16831157  0.22369389  1
  H  H399  1  0.55522151  0.08082094  0.21791452  1
  O  O400  1  0.54597777  0.27349295  0.06310995  1
  H  H401  1  0.52450479  0.21890201  0.06358509  1
  C  C402  1  0.52220944  0.46314163  0.12803822  1
  C  C403  1  0.59786526  0.48045051  0.15825162  1
  H  H404  1  0.99477820  0.38563518  0.11032481  1
  H  H405  1  0.56685236  0.46899060  0.24711406  1
  H  H406  1  0.81094154  0.19029737  0.32396883  1
  C  C407  1  0.78963015  0.14552661  0.37351302  1
  H  H408  1  0.83200879  0.12390104  0.26216011  1
  H  H409  1  0.84280162  0.32427740  0.28853141  1
  C  C410  1  0.75368072  0.23049851  0.49601528  1
  C  C411  1  0.79298402  0.08791877  0.39802722  1
  H  H412  1  0.57400224  0.27539628  0.46168370  1
  C  C413  1  0.85954296  0.02733693  0.38621974  1
  N  N414  1  0.75085409  0.02165626  0.45019478  1
  O  O415  1  0.66052891  0.13500827  0.44045363  1
  H  H416  1  0.61628341  0.05929944  0.34826932  1
  H  H417  1  0.66141075  0.12799769  0.46570588  1
  O  O418  1  0.75689270  0.39818561  0.47183868  1
  H  H419  1  0.60740293  0.15907725  0.28968996  1
  H  H420  1  0.56239468  0.35170622  0.38687218  1
  C  C421  1  0.83225881  0.14650935  0.34234119  1
  C  C422  1  0.70503614  0.38904161  0.26516635  1
  H  H423  1  0.60318185  0.00872581  0.38779564  1
  C  C424  1  0.77742821  0.36406645  0.29191743  1
  O  O425  1  0.57089998  0.29772406  0.38906133  1
  Zn  Zn426  1  0.86366441  0.27751062  0.46000984  1
  H  H427  1  0.74755360  0.19543674  0.38144457  1
  C  C428  1  0.91303658  0.09260412  0.33056381  1
  H  H429  1  0.58488452  0.17372091  0.38011076  1
  C  C430  1  0.55148849  0.03261548  0.36636166  1
  H  H431  1  0.68489815  0.41438359  0.45947845  1
  H  H432  1  0.58439940  0.24481378  0.31301624  1
  C  C433  1  0.73508063  0.08199586  0.43137853  1
  C  C434  1  0.91786557  0.03217754  0.35272742  1
  H  H435  1  0.82219403  0.31421070  0.35853202  1
  C  C436  1  0.62350070  0.44710815  0.26895316  1
  C  C437  1  0.52747275  0.03794399  0.27396230  1
  O  O438  1  0.82067097  0.42218820  0.38746292  1
  H  H439  1  0.93690058  0.38007414  0.35531658  1
  C  C440  1  0.76909307  0.39885231  0.32355788  1
  H  H441  1  0.90683587  0.05857576  0.47519436  1
  C  C442  1  0.83918509  0.37333464  0.35413379  1
  H  H443  1  0.94334306  0.38978525  0.48984240  1
  C  C444  1  0.68431293  0.45487889  0.32962831  1
  H  H445  1  0.74964679  0.01493697  0.31352039  1
  N  N446  1  0.65231631  0.47236417  0.36348513  1
  C  C447  1  0.55125724  0.20350588  0.29683781  1
  C  C448  1  0.96823723  0.19609987  0.48726659  1
  C  C449  1  0.54656033  0.27364529  0.48840437  1
  C  C450  1  0.98436868  0.02312554  0.48693707  1
  C  C451  1  0.97789758  0.09171129  0.29695856  1
  C  C452  1  0.62532983  0.48447670  0.29988716  1
  C  C453  1  0.53324759  0.49284717  0.36563303  1
  C  C454  1  0.73405791  0.46547814  0.38810741  1
  H  H455  1  0.53109134  0.32890182  0.49811510  1
  O  O456  1  0.75808647  0.48073483  0.64584578  1
  C  C457  1  0.63582339  0.02758611  0.74393428  1
  H  H458  1  0.84911619  0.16875258  0.69313240  1
  C  C459  1  0.53079102  0.35565907  0.67230246  1
  H  H460  1  0.94955609  0.46976221  0.65369637  1
  C  C461  1  0.81507708  0.14480466  0.61981943  1
  C  C462  1  0.66606677  0.44292160  0.64691821  1
  H  H463  1  0.59365129  0.20776509  0.69043965  1
  C  C464  1  0.85068657  0.22665767  0.68806314  1
  H  H465  1  0.96066772  0.04750620  0.65546273  1
  C  C466  1  0.97427039  0.08079473  0.59106594  1
  C  C467  1  0.85213997  0.18477372  0.50603599  1
  C  C468  1  0.78005802  0.08700577  0.64290199  1
  C  C469  1  0.66131742  0.07499630  0.65148365  1
  H  H470  1  0.54188804  0.22629399  0.61478972  1
  C  C471  1  0.75993026  0.26748303  0.59823502  1
  H  H472  1  0.66403717  0.43920629  0.70944135  1
  C  C473  1  0.95844601  0.25538220  0.67896017  1
  C  C474  1  0.70380279  0.13273500  0.54311252  1
  C  C475  1  0.57279991  0.12388474  0.64161288  1
  N  N476  1  0.64780699  0.38059669  0.66567626  1
  O  O477  1  0.88792893  0.27234242  0.59018339  1
  H  H478  1  0.87550278  0.08980206  0.53988712  1
  C  C479  1  0.83934993  0.46749192  0.51956188  1
  C  C480  1  0.86800549  0.45161086  0.66629490  1
  O  O481  1  0.55506889  0.01185386  0.72308142  1
  C  C482  1  0.74405920  0.33799029  0.67511319  1
  H  H483  1  0.84636247  0.03455063  0.68819324  1
  C  C484  1  0.66889454  0.06500862  0.56250952  1
  C  C485  1  0.86031716  0.36925311  0.67082907  1
  C  C486  1  0.74727750  0.26752148  0.68956154  1
  C  C487  1  0.95512921  0.21594153  0.59212038  1
  C  C488  1  0.96444076  0.32829500  0.67129615  1
  C  C489  1  0.72268370  0.19435197  0.61322503  1
  N  N490  1  0.92096331  0.14826270  0.60077280  1
  H  H491  1  0.84369852  0.03267518  0.60204820  1
  H  H492  1  0.76149793  0.31361910  0.61799168  1
  H  H493  1  0.99033712  0.44347744  0.58384854  1
  H  H494  1  0.68640500  0.17853257  0.72288841  1
  C  C495  1  0.86793150  0.03575951  0.66064403  1
  C  C496  1  0.81766187  0.12967719  0.53119052  1
  H  H497  1  0.70797886  0.28457934  0.57525349  1
  C  C498  1  0.65275543  0.22688496  0.70942229  1
  H  H499  1  0.85826176  0.48210446  0.68977238  1
  H  H500  1  0.60699838  0.26228685  0.72968638  1
  C  C501  1  0.61170340  0.18451165  0.53763170  1
  C  C502  1  0.60668646  0.18462747  0.62320692  1
  C  C503  1  0.62293905  0.48028094  0.72677643  1
  C  C504  1  0.56975495  0.47461296  0.62824894  1
  H  H505  1  0.67998020  0.07509208  0.59101550  1
  H  H506  1  0.63377013  0.02926025  0.66867241  1
  C  C507  1  0.63953820  0.23024100  0.50835961  1
  O  O508  1  0.92523374  0.01728699  0.59054020  1
  N  N509  1  0.50183001  0.17627175  0.55221033  1
  O  O510  1  0.52829279  0.05134790  0.56862451  1
  O  O511  1  0.50027025  0.31786704  0.69429273  1
  H  H512  1  0.71769583  0.01716205  0.55240241  1
  O  O513  1  0.79378105  0.37734993  0.74932026  1
  O  O514  1  0.63228323  0.45435627  0.50998626  1
  C  C515  1  0.72975947  0.44352455  0.50208249  1
  C  C516  1  0.94473198  0.43656667  0.50837227  1
  C  C517  1  0.67022761  0.48255062  0.76001598  1
  C  C518  1  0.72612621  0.17251581  0.84756030  1
  C  C519  1  0.61988584  0.09214594  0.76405131  1
  C  C520  1  0.81788140  0.08366069  0.93225872  1
  H  H521  1  0.80656172  0.28273147  0.84713613  1
  C  C522  1  0.59186375  0.31423957  0.97820278  1
  C  C523  1  0.55197282  0.23655271  0.84430467  1
  N  N524  1  0.80164196  0.44268641  0.80214209  1
  H  H525  1  0.85242186  0.46058841  0.86544549  1
  H  H526  1  0.61305271  0.34929421  0.77134671  1
  C  C527  1  0.55145042  0.20154143  0.81127499  1
  C  C528  1  0.65166811  0.22349055  0.86885955  1
  C  C529  1  0.75009266  0.47327160  0.83043146  1
  H  H530  1  0.63171151  0.32901299  0.81565111  1
  H  H531  1  0.94064726  0.24251427  0.83217885  1
  C  C532  1  0.60055407  0.38404623  0.96229714  1
  C  C533  1  0.86355706  0.08256871  0.82724656  1
  C  C534  1  0.66059083  0.16328522  0.81717968  1
  C  C535  1  0.68464978  0.06501397  0.92558097  1
  H  H536  1  0.75257631  0.44510287  0.98737452  1
  C  C537  1  0.85159376  0.15552651  0.93287218  1
  H  H538  1  0.59353865  0.14497383  0.92736261  1
  C  C539  1  0.90550964  0.03159197  0.93434392  1
  Zn  Zn540  1  0.76158824  0.32772961  0.96675714  1
  C  C541  1  0.96968930  0.17545588  0.93800784  1
  H  H542  1  0.88170625  0.38350446  0.75127224  1
  C  C543  1  0.69383467  0.44038338  0.96381504  1
  O  O544  1  0.66559682  0.24433896  0.89773594  1
  Zn  Zn545  1  0.54489582  0.36224042  0.90055151  1
  C  C546  1  0.82901037  0.13016625  0.85269976  1
  H  H547  1  0.78712038  0.20197568  0.92977427  1
  C  C548  1  0.88158146  0.28787748  0.82752662  1
  C  C549  1  0.69279221  0.10457524  0.79324336  1
  C  C550  1  0.79926059  0.06393316  0.79807218  1
  C  C551  1  0.57759249  0.36252402  0.79721668  1
  H  H552  1  0.60923963  0.41914027  0.80558667  1
  O  O553  1  0.76571238  0.45614491  0.86331975  1
  H  H554  1  0.87946834  0.13250639  0.87699797  1
  O  O555  1  0.93235174  0.30333326  0.93779032  1
  O  O556  1  0.54673254  0.25847849  0.98027200  1
  C  C557  1  0.92282427  0.42129005  0.80923046  1
  C  C558  1  0.75792010  0.42809417  0.77068835  1
  O  O559  1  0.59397721  0.09938824  0.94350145  1
  H  H560  1  0.94143160  0.05299836  0.83262818  1
  C  C561  1  0.82421192  0.00588436  0.77574551  1
  H  H562  1  0.83867344  0.28293659  0.80179312  1
  C  C563  1  0.95006454  0.35958107  0.82956056  1
  H  H564  1  0.80015802  0.02460623  0.87091265  1
  H  H565  1  0.67792317  0.00547521  0.93223684  1
  C  C566  1  0.52352206  0.14129795  0.75677914  1
  H  H567  1  0.67555226  0.06930429  0.89713186  1
  C  C568  1  0.99487036  0.48581002  0.80768867  1
  H  H569  1  0.62319724  0.09513273  0.99689075  1
  H  H570  1  0.76371257  0.95969894  0.12823416  1
  O  O571  1  0.51574436  0.97908837  0.00131949  1
  H  H572  1  0.71566558  0.70193935  0.05436326  1
  H  H573  1  0.67775992  0.71854338  0.17124827  1
  C  C574  1  0.82925646  0.85487550  0.11622736  1
  H  H575  1  0.80265941  0.60512136  0.12569491  1
  C  C576  1  0.63459138  0.57176939  0.10248980  1
  O  O577  1  0.87195607  0.59051641  0.01651810  1
  C  C578  1  0.78569395  0.90653907  0.13845462  1
  C  C579  1  0.54379117  0.51689818  0.10248402  1
  C  C580  1  0.72938020  0.56315830  0.12723193  1
  C  C581  1  0.82997292  0.80906375  0.24707264  1
  C  C582  1  0.87266282  0.78809268  0.12512496  1
  C  C583  1  0.81412023  0.81466089  0.18438345  1
  C  C584  1  0.50273898  0.83903663  0.01142276  1
  H  H585  1  0.90690007  0.74866105  0.10697672  1
  O  O586  1  0.82211016  0.94737445  0.07209848  1
  C  C587  1  0.57621331  0.79901356  0.23080696  1
  H  H588  1  0.90112451  0.62009492  0.03719136  1
  C  C589  1  0.66695772  0.75553923  0.21363430  1
  N  N590  1  0.77122563  0.79302618  0.21570922  1
  H  H591  1  0.73138343  0.93034569  0.22590131  1
  C  C592  1  0.77314949  0.88729179  0.17352081  1
  C  C593  1  0.74188776  0.94001023  0.19761555  1
  C  C594  1  0.91942473  0.70363174  0.17557662  1
  O  O595  1  0.75140632  0.66219154  0.07059674  1
  O  O596  1  0.97723651  0.65161174  0.16711445  1
  C  C597  1  0.65337846  0.62491501  0.07513926  1
  C  C598  1  0.86859356  0.76921941  0.15989029  1
  O  O599  1  0.87834105  0.83606189  0.06011519  1
  H  H600  1  0.78769752  0.50530887  0.17198775  1
  H  H601  1  0.91212514  0.70032652  0.20380052  1
  N  N602  1  0.55127885  0.62780791  0.05522864  1
  O  O603  1  0.64269208  0.69942589  0.19320097  1
  C  C604  1  0.55992907  0.83143726  0.04382513  1
  C  C605  1  0.83873969  0.88258262  0.08066902  1
  C  C606  1  0.92484044  0.52881145  0.02317114  1
  H  H607  1  0.70371002  0.51973505  0.05158800  1
  C  C608  1  0.58909961  0.76017117  0.09679219  1
  C  C609  1  0.53052909  0.69710197  0.03934786  1
  H  H610  1  0.56168467  0.70785505  0.10832359  1
  H  H611  1  0.68386178  0.76958904  0.10473584  1
  C  C612  1  0.50088061  0.96242392  0.12122106  1
  C  C613  1  0.71416342  0.51785888  0.15455668  1
  C  C614  1  0.56305560  0.76259332  0.05736175  1
  H  H615  1  0.58440454  0.87931896  0.05922538  1
  H  H616  1  0.73050581  0.99668687  0.18863811  1
  H  H617  1  0.54426037  0.80136069  0.11222905  1
  H  H618  1  0.94350569  0.98267737  0.00440952  1
  H  H619  1  0.57597297  0.98869615  0.45124884  1
  C  C620  1  0.71872543  0.96946450  0.29686609  1
  H  H621  1  0.66113119  0.78951940  0.46916334  1
  C  C622  1  0.51344931  0.54922973  0.39134708  1
  C  C623  1  0.62702803  0.84807724  0.25651851  1
  C  C624  1  0.77942504  0.58552124  0.46493253  1
  C  C625  1  0.94419254  0.94315236  0.49163582  1
  C  C626  1  0.60920360  0.56874788  0.41215148  1
  C  C627  1  0.71422393  0.52357439  0.41279871  1
  C  C628  1  0.85774617  0.91710661  0.46997873  1
  H  H629  1  0.62860685  0.88373525  0.43322120  1
  O  O630  1  0.97601222  0.64582528  0.42395732  1
  C  C631  1  0.67188158  0.61945525  0.47110166  1
  C  C632  1  0.58638770  0.60910114  0.44317983  1
  H  H633  1  0.98103366  0.86468045  0.41274458  1
  H  H634  1  0.76322540  0.75279942  0.44271924  1
  C  C635  1  0.82713718  0.84096995  0.47160704  1
  C  C636  1  0.60568493  0.97824087  0.28141588  1
  C  C637  1  0.79981864  0.53898222  0.43815008  1
  H  H638  1  0.85628455  0.59865836  0.48085853  1
  H  H639  1  0.56418787  0.58223319  0.32706846  1
  C  C640  1  0.54990983  0.55510140  0.30291648  1
  H  H641  1  0.88277301  0.50992867  0.43736054  1
  H  H642  1  0.87925834  0.90244477  0.30155278  1
  H  H643  1  0.56999864  0.59528924  0.28294080  1
  C  C644  1  0.78692545  0.90805951  0.29166808  1
  O  O645  1  0.65693649  0.84131457  0.41850813  1
  C  C646  1  0.88425169  0.96913035  0.40910467  1
  C  C647  1  0.82632392  0.97144636  0.44266861  1
  C  C648  1  0.74737587  0.85518129  0.26829810  1
  H  H649  1  0.72695908  0.85958810  0.40699566  1
  C  C650  1  0.73432134  0.80374981  0.45202903  1
  C  C651  1  0.56374157  0.91399419  0.26333273  1
  O  O652  1  0.50578935  0.96577056  0.45917355  1
  O  O653  1  0.92305779  0.79138036  0.25723083  1
  H  H654  1  0.96759586  0.59321046  0.41322325  1
  N  N655  1  0.53919053  0.69207161  0.49975134  1
  C  C656  1  0.87974746  0.79769075  0.49740775  1
  C  C657  1  0.96182072  0.91350051  0.39708379  1
  C  C658  1  0.98947985  0.97311542  0.34006228  1
  C  C659  1  0.52375130  0.52105096  0.71832299  1
  H  H660  1  0.74639546  0.53656484  0.55396030  1
  H  H661  1  0.50932758  0.93072035  0.68054190  1
  H  H662  1  0.70890027  0.68919963  0.58457067  1
  H  H663  1  0.69026360  0.55069788  0.60449655  1
  C  C664  1  0.71122310  0.87962065  0.67002849  1
  H  H665  1  0.58624898  0.78945884  0.60662075  1
  C  C666  1  0.82435485  0.68555006  0.70994782  1
  O  O667  1  0.89645703  0.61026646  0.65838732  1
  H  H668  1  0.64274080  0.87366554  0.64931757  1
  O  O669  1  0.78074594  0.78193709  0.62027428  1
  H  H670  1  0.88726185  0.64782308  0.58461120  1
  C  C671  1  0.68884432  0.91654920  0.70106368  1
  C  C672  1  0.97065851  0.61709911  0.67983800  1
  C  C673  1  0.69694790  0.70804567  0.55744063  1
  H  H674  1  0.59737306  0.67170417  0.74242223  1
  H  H675  1  0.77846640  0.74219825  0.55096613  1
  H  H676  1  0.60522886  0.75036944  0.71617037  1
  C  C677  1  0.58353790  0.74547056  0.55480519  1
  C  C678  1  0.51453672  0.74560404  0.52378174  1
  C  C679  1  0.76975832  0.93656064  0.72714738  1
  C  C680  1  0.82536598  0.85346907  0.67015685  1
  H  H681  1  0.77225447  0.66799406  0.68795845  1
  C  C682  1  0.85544027  0.80374269  0.63847031  1
  C  C683  1  0.59421859  0.53386895  0.60664314  1
  C  C684  1  0.88238435  0.89964883  0.72391904  1
  C  C685  1  0.56210692  0.93419578  0.70432408  1
  H  H686  1  0.54069374  0.60462624  0.56800189  1
  O  O687  1  0.72811188  0.65666723  0.52460530  1
  C  C688  1  0.83494341  0.51977701  0.54526298  1
  C  C689  1  0.96027553  0.82752895  0.51925580  1
  C  C690  1  0.99534596  0.89893420  0.51623334  1
  C  C691  1  0.77371487  0.71740177  0.73841034  1
  C  C692  1  0.53406701  0.78441226  0.58219421  1
  C  C693  1  0.91207852  0.85995117  0.69561761  1
  C  C694  1  0.51048901  0.56685044  0.58723817  1
  H  H695  1  0.85898093  0.97951613  0.65094503  1
  C  C696  1  0.94263950  0.66712793  0.70932228  1
  H  H697  1  0.90939858  0.56869920  0.61142843  1
  C  C698  1  0.64131001  0.72473277  0.73996287  1
  C  C699  1  0.94335429  0.54514926  0.55849476  1
  H  H700  1  0.52324349  0.89900263  0.72483641  1
  C  C701  1  0.94352837  0.59813357  0.58853256  1
  O  O702  1  0.96140143  0.78460446  0.63638384  1
  C  C703  1  0.64613841  0.65795183  0.50163924  1
  H  H704  1  0.86360417  0.73990169  0.50123103  1
  C  C705  1  0.76230261  0.93129930  0.84211712  1
  H  H706  1  0.72101167  0.89044455  0.77368902  1
  O  O707  1  0.70166932  0.65296373  0.94203696  1
  O  O708  1  0.66360613  0.85690709  0.78645636  1
  H  H709  1  0.99220243  0.94492374  0.83671415  1
  C  C710  1  0.84903529  0.92173329  0.89885997  1
  H  H711  1  0.81178672  0.63416491  0.79370452  1
  H  H712  1  0.66239262  0.58955564  0.86782929  1
  C  C713  1  0.81979188  0.81036271  0.86470438  1
  H  H714  1  0.94535975  0.69208888  0.93667574  1
  C  C715  1  0.80247976  0.96440207  0.87161866  1
  C  C716  1  0.73887883  0.57664912  0.96112281  1
  H  H717  1  0.89584162  0.63039973  0.88058312  1
  C  C718  1  0.56538851  0.52699509  0.93208569  1
  C  C719  1  0.83571912  0.73357311  0.85870876  1
  H  H720  1  0.72969875  0.96673242  0.82211794  1
  N  N721  1  0.80488984  0.75989729  0.79957680  1
  C  C722  1  0.55555513  0.71933246  0.91220322  1
  C  C723  1  0.96832074  0.72359451  0.76422545  1
  H  H724  1  0.71868210  0.77125205  0.91593083  1
  H  H725  1  0.71378805  0.60545552  0.98571715  1
  C  C726  1  0.77088103  0.85614635  0.83866153  1
  O  O727  1  0.84670493  0.63748872  0.81865458  1
  H  H728  1  0.61038138  0.76040694  0.76070946  1
  C  C729  1  0.91253836  0.72330194  0.91529822  1
  H  H730  1  0.64734241  0.89198999  0.89181893  1
  C  C731  1  0.86593439  0.84291190  0.89534079  1
  C  C732  1  0.63000958  0.53428766  0.78565063  1
  C  C733  1  0.82311153  0.70539249  0.82451605  1
  C  C734  1  0.62607190  0.78198224  0.91105161  1
  C  C735  1  0.74793058  0.82225108  0.80485766  1
  C  C736  1  0.67084615  0.53377228  0.82029029  1
  C  C737  1  0.53320382  0.63468528  0.83405827  1
  C  C738  1  0.60469351  0.65413351  0.92638429  1
  C  C739  1  0.90832029  0.79780762  0.92276071  1
  C  C740  1  0.93719979  0.83476534  0.95583825  1
  N  N741  1  0.92373291  0.90882821  0.95451464  1
  H  H742  1  0.93272016  0.51943421  0.75614354  1
  C  C743  1  0.58362479  0.84689739  0.89858584  1
  C  C744  1  0.84589770  0.73947091  0.76637943  1
  C  C745  1  0.88533337  0.94972975  0.93059830  1
  H  H746  1  0.83555614  0.56732808  0.96144957  1
  O  O747  1  0.91799744  0.97124028  0.78189471  1
  C  C748  1  0.62429399  0.58810935  0.84251641  1
  C  C749  1  0.88470103  0.68962861  0.88442559  1
  C  C750  1  0.53250258  0.58014528  0.77789244  1
  H  H751  1  0.52898053  0.60952089  0.97602622  1
  O  O752  1  0.97830256  0.80732871  0.98149783  1
  C  C753  1  0.94649182  0.90442460  0.75717269  1
  N  N754  1  0.52699715  0.59713364  0.92176494  1
  H  H755  1  0.91890502  0.86170371  0.77646285  1
  C  C756  1  0.66423716  0.51560217  0.95186584  1
  H  H757  1  0.51389001  0.91219409  0.81673481  1
  H  H758  1  0.56577361  0.99925066  0.81024205  1
  C  C759  1  0.99914724  0.53514848  0.77664135  1
  H  H760  1  0.52214470  0.95263647  0.77329740  1
  H  H761  1  0.99048032  0.59432305  0.78360807  1
  C  C762  1  0.50180558  0.96076649  0.80151831  1
  N  N763  1  0.73940484  0.99036934  0.75020608  1
