# generated using pymatgen
data_Cu6H22C55N9O26
_symmetry_space_group_name_H-M   'P 1'
_cell_length_a   22.47941255
_cell_length_b   27.53957888
_cell_length_c   28.23645225
_cell_angle_alpha   90.00000000
_cell_angle_beta   90.00000000
_cell_angle_gamma   90.00000000
_symmetry_Int_Tables_number   1
_chemical_formula_structural   Cu6H22C55N9O26
_chemical_formula_sum   'Cu48 H176 C440 N72 O208'
_cell_volume   17480.44087896
_cell_formula_units_Z   8
loop_
 _symmetry_equiv_pos_site_id
 _symmetry_equiv_pos_as_xyz
  1  'x, y, z'
loop_
 _atom_site_type_symbol
 _atom_site_label
 _atom_site_symmetry_multiplicity
 _atom_site_fract_x
 _atom_site_fract_y
 _atom_site_fract_z
 _atom_site_occupancy
  O  O0  1  0.43303632  0.21479085  0.06997240  1
  O  O1  1  0.18947769  0.07680470  0.12672195  1
  Cu  Cu2  1  0.15214144  0.12625763  0.16157651  1
  C  C3  1  0.16731223  0.05501262  0.08934074  1
  O  O4  1  0.11395149  0.15418595  0.10639051  1
  O  O5  1  0.11350915  0.17130514  0.19881662  1
  C  C6  1  0.07760423  0.20782612  0.19117930  1
  O  O7  1  0.19217491  0.20025629  0.08865725  1
  C  C8  1  0.14140040  0.18681413  0.07991271  1
  O  O9  1  0.17828265  0.06436646  0.04889979  1
  C  C10  1  0.10957351  0.20804817  0.03799423  1
  H  H11  1  0.45794844  0.17339354  0.20525877  1
  C  C12  1  0.04916526  0.19942776  0.03047175  1
  C  C13  1  0.12457722  0.01313676  0.09309517  1
  H  H14  1  0.02355641  0.17747601  0.05637118  1
  C  C15  1  0.46071464  0.17331478  0.06228929  1
  O  O16  1  0.46919954  0.14682720  0.09514046  1
  O  O17  1  0.01690793  0.06252367  0.23720161  1
  H  H18  1  0.13145512  0.00700921  0.01837071  1
  Cu  Cu19  1  0.43396070  0.23771612  0.12934160  1
  H  H20  1  0.19253077  0.24768995  0.02329826  1
  H  H21  1  0.10869116  0.00635596  0.17048375  1
  C  C22  1  0.14808359  0.23708461  0.01138301  1
  C  C23  1  0.48457285  0.15497039  0.01508731  1
  C  C24  1  0.06603134  0.05354422  0.23171028  1
  C  C25  1  0.00266755  0.14927717  0.15932129  1
  C  C26  1  0.49919414  0.15520112  0.19406705  1
  O  O27  1  0.40902088  0.11199402  0.23052019  1
  C  C28  1  0.45106437  0.08689128  0.23377899  1
  O  O29  1  0.09015796  0.24985085  0.19986147  1
  C  C30  1  0.02284958  0.19759153  0.16513213  1
  O  O31  1  0.11714044  0.04420525  0.22723126  1
  H  H32  1  0.03526395  0.11879598  0.16837712  1
  O  O33  1  0.49813483  0.25563939  0.16875735  1
  C  C34  1  0.48515338  0.42045915  0.03853002  1
  H  H35  1  0.44756776  0.43285065  0.01524483  1
  Cu  Cu36  1  0.23456391  0.32701524  0.00142974  1
  H  H37  1  0.00359082  0.47364281  0.07741883  1
  N  N38  1  0.04827067  0.47871657  0.17452733  1
  H  H39  1  0.23873704  0.43789386  0.18339428  1
  O  O40  1  0.48997615  0.39717072  0.22812280  1
  H  H41  1  0.10430394  0.45045452  0.21758012  1
  O  O42  1  0.26781599  0.36348296  0.05152846  1
  N  N43  1  0.32952971  0.44965286  0.12357730  1
  C  C44  1  0.40716488  0.29223837  0.23447301  1
  C  C45  1  0.32871481  0.43349705  0.21487816  1
  C  C46  1  0.47942648  0.41430180  0.08816075  1
  C  C47  1  0.26644394  0.43615502  0.21585281  1
  H  H48  1  0.45307863  0.29923775  0.22465664  1
  H  H49  1  0.13677308  0.40484651  0.13498450  1
  C  C50  1  0.22095035  0.45563822  0.04787229  1
  N  N51  1  0.41014167  0.41578272  0.15839202  1
  O  O52  1  0.05782892  0.37427475  0.07436797  1
  C  C53  1  0.02898267  0.39572583  0.04656089  1
  C  C54  1  0.42100335  0.42419370  0.11106857  1
  O  O55  1  0.37344866  0.27118251  0.15627350  1
  C  C56  1  0.12247133  0.47567993  0.10504826  1
  O  O57  1  0.14639631  0.44171875  0.20896724  1
  C  C58  1  0.06246419  0.48467664  0.13144077  1
  N  N59  1  0.37070093  0.44444249  0.08998120  1
  H  H60  1  0.14918527  0.39927274  0.02400251  1
  H  H61  1  0.27179076  0.26403689  0.19738376  1
  C  C62  1  0.36376815  0.27993745  0.20057424  1
  C  C63  1  0.23215488  0.37317408  0.08608742  1
  C  C64  1  0.35502377  0.43329193  0.16573281  1
  H  H65  1  0.26031473  0.44655645  0.02550086  1
  H  H66  1  0.43502950  0.40158070  0.18403183  1
  H  H67  1  0.00303570  0.27650260  0.14898735  1
  C  C68  1  0.15317237  0.43226002  0.11071625  1
  C  C69  1  0.20047388  0.42136286  0.08022745  1
  O  O70  1  0.21357388  0.34074170  0.10990444  1
  C  C71  1  0.30686851  0.27523930  0.22128041  1
  C  C72  1  0.06264673  0.41377812  0.00362443  1
  C  C73  1  0.04712932  0.10056013  0.34774414  1
  C  C74  1  0.06218001  0.18424226  0.31798980  1
  C  C75  1  0.07659907  0.14529786  0.35531191  1
  C  C76  1  0.11019824  0.15573403  0.39461123  1
  C  C77  1  0.09483732  0.06955948  0.41966706  1
  C  C78  1  0.12080189  0.11644356  0.42478123  1
  H  H79  1  0.12407955  0.19317247  0.40220801  1
  H  H80  1  0.35255293  0.08637002  0.42372338  1
  C  C81  1  0.05867378  0.06419796  0.38091042  1
  H  H82  1  0.10863074  0.03876844  0.44283145  1
  C  C83  1  0.15786454  0.12546804  0.46908972  1
  O  O84  1  0.18946472  0.16466505  0.47508338  1
  C  C85  1  0.34907001  0.05181196  0.44561593  1
  C  C86  1  0.03649601  0.01306317  0.36417452  1
  O  O87  1  0.36866451  0.02837472  0.34122916  1
  Cu  Cu88  1  0.44312513  0.03225667  0.32108908  1
  O  O89  1  0.45302687  0.04597036  0.25678365  1
  O  O90  1  0.15722169  0.09441658  0.49911713  1
  H  H91  1  0.26675812  0.10561933  0.49402798  1
  O  O92  1  0.34361548  0.23937760  0.45783168  1
  O  O93  1  0.02826211  0.17543265  0.28781455  1
  O  O94  1  0.08917851  0.22640522  0.32016567  1
  H  H95  1  0.01789355  0.09308545  0.31825309  1
  O  O96  1  0.49836369  0.20035789  0.40265659  1
  C  C97  1  0.49513819  0.16420577  0.41612314  1
  C  C98  1  0.35118841  0.00480969  0.42447809  1
  C  C99  1  0.34988310  0.05414191  0.49468892  1
  C  C100  1  0.38742976  0.25375219  0.45959133  1
  C  C101  1  0.01393745  0.33662105  0.28740177  1
  C  C102  1  0.01335319  0.35139463  0.44452475  1
  O  O103  1  0.01681248  0.37275645  0.26383039  1
  H  H104  1  0.01838763  0.35509174  0.48253113  1
  C  C105  1  0.31484355  0.36787560  0.49598318  1
  Cu  Cu106  1  0.15592001  0.43418337  0.49980113  1
  C  C107  1  0.35982569  0.42277895  0.34591165  1
  O  O108  1  0.22504409  0.29408794  0.32747080  1
  C  C109  1  0.00977405  0.33990005  0.34025129  1
  H  H110  1  0.33371053  0.29878123  0.34042913  1
  C  C111  1  0.03342972  0.38062148  0.36221123  1
  H  H112  1  0.05879044  0.40718960  0.34107279  1
  H  H113  1  0.40901238  0.42490698  0.25723307  1
  C  C114  1  0.26537569  0.42509943  0.30154878  1
  O  O115  1  0.23802942  0.39004949  0.43374070  1
  O  O116  1  0.08484225  0.45644247  0.39893857  1
  C  C117  1  0.44577316  0.31731531  0.31185715  1
  O  O118  1  0.08202478  0.43443557  0.47253528  1
  C  C119  1  0.23110367  0.27759697  0.28872494  1
  H  H120  1  0.23957827  0.42227680  0.33398525  1
  C  C121  1  0.39713919  0.29858713  0.28303508  1
  H  H122  1  0.27739359  0.39956647  0.42056056  1
  O  O123  1  0.22122249  0.32957436  0.48399096  1
  O  O124  1  0.02781958  0.29360650  0.27262600  1
  N  N125  1  0.47800514  0.33512043  0.33794801  1
  O  O126  1  0.41873808  0.42278671  0.34412104  1
  O  O127  1  0.33353400  0.41191095  0.38116353  1
  C  C128  1  0.40932593  0.43102745  0.49376658  1
  C  C129  1  0.33842127  0.29410114  0.30193062  1
  Cu  Cu130  1  0.46286102  0.38877524  0.38876004  1
  C  C131  1  0.29387516  0.28296320  0.26943362  1
  O  O132  1  0.49894809  0.35486340  0.43672157  1
  C  C133  1  0.03319387  0.38445788  0.41207222  1
  C  C134  1  0.35641184  0.40503797  0.48827684  1
  C  C135  1  0.06601543  0.42945547  0.42835417  1
  C  C136  1  0.25655576  0.35963819  0.47095010  1
  O  O137  1  0.18602977  0.26026514  0.26503620  1
  C  C138  1  0.44325466  0.47367185  0.47944739  1
  C  C139  1  0.32655572  0.42582976  0.30088374  1
  O  O140  1  0.13739099  0.43020008  0.28813296  1
  Cu  Cu141  1  0.10278316  0.26992553  0.26808931  1
  O  O142  1  0.49893971  0.47480289  0.49080371  1
  C  C143  1  0.35817179  0.42886463  0.25843253  1
  C  C144  1  0.16953889  0.43270765  0.25480572  1
  C  C145  1  0.23671148  0.43173849  0.25886429  1
  O  O146  1  0.34018988  0.18783909  0.59122700  1
  Cu  Cu147  1  0.41312749  0.19151318  0.56076059  1
  N  N148  1  0.39480113  0.12540276  0.53535539  1
  C  C149  1  0.30136709  0.21857493  0.60228721  1
  O  O150  1  0.25999433  0.22765430  0.57304362  1
  H  H151  1  0.39303431  0.22299569  0.67270486  1
  Cu  Cu152  1  0.44629287  0.06601839  0.54370409  1
  H  H153  1  0.34561921  0.01238046  0.56264522  1
  C  C154  1  0.34559524  0.01308107  0.52319295  1
  C  C155  1  0.34589790  0.11042077  0.51630356  1
  O  O156  1  0.44529213  0.23390382  0.74487492  1
  N  N157  1  0.29458218  0.12989012  0.51005288  1
  C  C158  1  0.35217953  0.24400942  0.67971967  1
  C  C159  1  0.30526025  0.24569595  0.64733416  1
  Cu  Cu160  1  0.23942937  0.18902622  0.52022446  1
  O  O161  1  0.49587278  0.18655226  0.53461890  1
  O  O162  1  0.48745265  0.00546554  0.55158944  1
  C  C163  1  0.49701170  0.30384719  0.62587523  1
  O  O164  1  0.30909349  0.48825411  0.64815020  1
  C  C165  1  0.00957835  0.48222554  0.62663005  1
  C  C166  1  0.07019193  0.48590454  0.69566621  1
  N  N167  1  0.47868210  0.25871263  0.61294740  1
  H  H168  1  0.15525042  0.44969569  0.68946642  1
  C  C169  1  0.15373600  0.41969675  0.59721250  1
  C  C170  1  0.42953427  0.31429328  0.57241479  1
  N  N171  1  0.43691843  0.26402131  0.57929262  1
  C  C172  1  0.05324505  0.45636706  0.60120592  1
  C  C173  1  0.33383024  0.32775223  0.52294620  1
  C  C174  1  0.20053679  0.31939938  0.72264467  1
  H  H175  1  0.16106349  0.34888856  0.66184117  1
  C  C176  1  0.04813698  0.35254065  0.70676778  1
  O  O177  1  0.00147193  0.33661015  0.56819326  1
  C  C178  1  0.40964977  0.38938004  0.52008788  1
  H  H179  1  0.30937284  0.29542711  0.53485626  1
  C  C180  1  0.00421997  0.37132274  0.73910355  1
  C  C181  1  0.25630808  0.29570944  0.70818737  1
  H  H182  1  0.04579320  0.44955088  0.56119652  1
  H  H183  1  0.21620730  0.27357060  0.64219950  1
  C  C184  1  0.30374324  0.29414867  0.74060027  1
  H  H185  1  0.07060069  0.33590765  0.63252742  1
  C  C186  1  0.10538073  0.44520870  0.62547948  1
  C  C187  1  0.39267549  0.34165068  0.53687842  1
  N  N188  1  0.46721141  0.33871960  0.60083149  1
  C  C189  1  0.10888048  0.34025421  0.72386303  1
  O  O190  1  0.13591742  0.40358463  0.55684182  1
  C  C191  1  0.35273197  0.26983795  0.72217016  1
  O  O192  1  0.20005133  0.41017169  0.61527677  1
  C  C193  1  0.11395548  0.45952369  0.67156326  1
  C  C194  1  0.25624166  0.27441216  0.66338441  1
  N  N195  1  0.15102946  0.32277311  0.68879680  1
  H  H196  1  0.47099897  0.37552756  0.60424565  1
  C  C197  1  0.03528424  0.34941860  0.65761110  1
  H  H198  1  0.22215250  0.49222200  0.58208292  1
  C  C199  1  0.01614533  0.49741450  0.67565492  1
  H  H200  1  0.46027219  0.22009141  0.97889605  1
  C  C201  1  0.02869011  0.21245048  0.98535181  1
  C  C202  1  0.47922519  0.18278161  0.97538778  1
  Cu  Cu203  1  0.49002115  0.20306751  0.79432522  1
  O  O204  1  0.46911733  0.23304698  0.89623034  1
  C  C205  1  0.06775981  0.24102329  0.95489560  1
  C  C206  1  0.49343269  0.19111316  0.89146006  1
  C  C207  1  0.12482738  0.25244909  0.96818725  1
  N  N208  1  0.18694895  0.33083287  0.76689833  1
  N  N209  1  0.12976243  0.34684127  0.76757209  1
  H  H210  1  0.05258442  0.25425197  0.92067780  1
  C  C211  1  0.12341278  0.41345298  0.99544391  1
  O  O212  1  0.13076155  0.49523009  0.76785695  1
  O  O213  1  0.41109574  0.29088561  0.79055894  1
  O  O214  1  0.24429804  0.34359858  0.85475174  1
  C  C215  1  0.02487497  0.42942043  0.96705936  1
  O  O216  1  0.47629980  0.32011470  0.87184551  1
  C  C217  1  0.30629928  0.42268555  0.89909731  1
  N  N218  1  0.30704567  0.38609875  0.92781170  1
  C  C219  1  0.42816668  0.48089989  0.82332569  1
  C  C220  1  0.01438858  0.47389504  0.89154330  1
  H  H221  1  0.01453099  0.37280107  0.77777806  1
  O  O222  1  0.04058709  0.49433866  0.85667462  1
  C  C223  1  0.45331802  0.39929637  0.85018588  1
  H  H224  1  0.25525266  0.48294549  0.91705631  1
  C  C225  1  0.35778667  0.43461608  0.86695890  1
  H  H226  1  0.12956438  0.46910115  0.88739638  1
  C  C227  1  0.11155038  0.45023945  0.91842639  1
  O  O228  1  0.13845534  0.29941162  0.89761449  1
  C  C229  1  0.15859288  0.28236385  0.93373317  1
  C  C230  1  0.04989329  0.44970757  0.92700330  1
  H  H231  1  0.38498505  0.36151271  0.88951237  1
  C  C232  1  0.39671341  0.39497829  0.86992847  1
  C  C233  1  0.37111494  0.47727207  0.84189318  1
  Cu  Cu234  1  0.43742085  0.26708141  0.84568292  1
  C  C235  1  0.40659814  0.26625939  0.75275301  1
  C  C236  1  0.21324919  0.42101048  0.93987285  1
  H  H237  1  0.30473685  0.31484385  0.77378620  1
  N  N238  1  0.24785519  0.44950856  0.90264517  1
  N  N239  1  0.24337934  0.38577117  0.95697484  1
  C  C240  1  0.14834567  0.43011607  0.95268799  1
  O  O241  1  0.21206786  0.29278862  0.94823948  1
  H  H242  1  0.20527298  0.34490277  0.83744645  1
  C  C243  1  0.46842857  0.44303692  0.82559908  1
  H  H244  1  0.23486681  0.35574760  0.88688229  1
  C  C245  1  0.49640451  0.35951649  0.85546571  1
  H  H246  1  0.17527745  0.68934289  0.12577570  1
  H  H247  1  0.12372109  0.54696132  0.07470803  1
  O  O248  1  0.23169325  0.68251754  0.03913403  1
  C  C249  1  0.19338762  0.71631621  0.05183151  1
  C  C250  1  0.16916993  0.71698714  0.09810008  1
  O  O251  1  0.12577792  0.72581351  0.18824187  1
  C  C252  1  0.14494683  0.51196092  0.07575011  1
  O  O253  1  0.04276444  0.65179994  0.18857678  1
  Cu  Cu254  1  0.07309927  0.69196588  0.23453792  1
  O  O255  1  0.19709359  0.58406099  0.02280571  1
  C  C256  1  0.21896436  0.53950836  0.01755379  1
  C  C257  1  0.19482353  0.50119043  0.04824913  1
  N  N258  1  0.01227580  0.50047803  0.10248842  1
  C  C259  1  0.06877940  0.95441377  0.04588488  1
  H  H260  1  0.10609372  0.87064637  0.15561325  1
  C  C261  1  0.09769673  0.99316842  0.13394924  1
  C  C262  1  0.13736415  0.79005493  0.03294205  1
  C  C263  1  0.06719738  0.94836185  0.12940973  1
  N  N264  1  0.01213507  0.94230018  0.20522536  1
  C  C265  1  0.17809979  0.75380642  0.02069910  1
  Cu  Cu266  1  0.06008657  0.82725590  0.22590993  1
  C  C267  1  0.10618428  0.75591748  0.15996126  1
  H  H268  1  0.07324093  0.81017938  0.08945297  1
  C  C269  1  0.13093940  0.75411615  0.11139944  1
  N  N270  1  0.07590235  0.87924339  0.18186620  1
  C  C271  1  0.04579996  0.93306290  0.08671237  1
  C  C272  1  0.05169358  0.92098004  0.17565808  1
  H  H273  1  0.01303665  0.90160020  0.08384647  1
  C  C274  1  0.11273008  0.78912981  0.07929318  1
  O  O275  1  0.06817724  0.78810706  0.16910281  1
  C  C276  1  0.11244238  0.99143065  0.04970485  1
  C  C277  1  0.39971814  0.65931639  0.38763660  1
  C  C278  1  0.40656164  0.70596765  0.36143318  1
  O  O279  1  0.35803658  0.65300190  0.41351072  1
  C  C280  1  0.45599854  0.71480124  0.33275019  1
  Cu  Cu281  1  0.43607991  0.56729254  0.41843313  1
  O  O282  1  0.44332600  0.62673522  0.38819476  1
  O  O283  1  0.09754070  0.72871863  0.28635014  1
  Cu  Cu284  1  0.05433167  0.60153666  0.48475069  1
  H  H285  1  0.49353640  0.68818779  0.32870582  1
  H  H286  1  0.31753291  0.72855863  0.38725270  1
  C  C287  1  0.35879941  0.73983232  0.36627521  1
  O  O288  1  0.01673929  0.65437493  0.45623607  1
  O  O289  1  0.41932678  0.50274369  0.45182013  1
  Cu  Cu290  1  0.01639138  0.74954394  0.38916386  1
  C  C291  1  0.45485769  0.75874964  0.30961549  1
  O  O292  1  0.20037162  0.98357654  0.36496886  1
  O  O293  1  0.35404484  0.95323400  0.36007616  1
  H  H294  1  0.23561084  0.85425585  0.37811210  1
  Cu  Cu295  1  0.30051404  0.93561302  0.31632511  1
  O  O296  1  0.01736394  0.78677631  0.44273332  1
  O  O297  1  0.01501255  0.75167278  0.32304168  1
  C  C298  1  0.23275042  0.87186599  0.26825322  1
  H  H299  1  0.11904649  0.98262876  0.36969803  1
  C  C300  1  0.40654156  0.79292509  0.31124256  1
  C  C301  1  0.36150509  0.78415752  0.34275496  1
  C  C302  1  0.20274599  0.94929231  0.38864371  1
  C  C303  1  0.35892224  0.99764272  0.37271092  1
  H  H304  1  0.01381540  0.84044762  0.34442271  1
  C  C305  1  0.34661521  0.96360289  0.45232320  1
  C  C306  1  0.05680988  0.84895942  0.32660243  1
  H  H307  1  0.16271677  0.93742713  0.30584238  1
  N  N308  1  0.32845693  0.86801508  0.32901530  1
  H  H309  1  0.35035742  0.92917592  0.43617682  1
  N  N310  1  0.26482447  0.82473715  0.37682396  1
  C  C311  1  0.16931894  0.86323711  0.28679243  1
  H  H312  1  0.40637806  0.82678337  0.29021029  1
  C  C313  1  0.05773619  0.79740340  0.47435714  1
  O  O314  1  0.09556280  0.82746185  0.46692929  1
  C  C315  1  0.08300133  0.89428417  0.32493161  1
  O  O316  1  0.20530096  0.91440919  0.41244436  1
  C  C317  1  0.04961067  0.93893204  0.34160236  1
  C  C318  1  0.08858998  0.81047648  0.30500970  1
  H  H319  1  0.17182691  0.78705701  0.27006947  1
  C  C320  1  0.14001857  0.90303798  0.30526886  1
  C  C321  1  0.06291857  0.76227271  0.30282767  1
  O  O322  1  0.25585174  0.91488776  0.26876971  1
  C  C323  1  0.31521218  0.82860987  0.35210656  1
  C  C324  1  0.14564759  0.81704098  0.28460850  1
  N  N325  1  0.07709460  0.97979340  0.35897667  1
  O  O326  1  0.25819462  0.83713567  0.25388029  1
  H  H327  1  0.07874492  0.59941909  0.59173294  1
  C  C328  1  0.11470437  0.57840865  0.60784879  1
  C  C329  1  0.14847752  0.54573418  0.58086370  1
  C  C330  1  0.18348335  0.56354062  0.67378173  1
  C  C331  1  0.13390235  0.58739621  0.65308290  1
  C  C332  1  0.21746648  0.53361578  0.64576835  1
  H  H333  1  0.18962511  0.56654275  0.71437021  1
  C  C334  1  0.09985208  0.62085287  0.68648266  1
  N  N335  1  0.04535371  0.63272299  0.68868067  1
  Cu  Cu336  1  0.20042018  0.68223640  0.68476929  1
  H  H337  1  0.06198506  0.68743905  0.63124940  1
  C  C338  1  0.34370575  0.67978514  0.72251993  1
  O  O339  1  0.25700331  0.63678491  0.70376477  1
  C  C340  1  0.06294864  0.70931481  0.59795889  1
  C  C341  1  0.33657322  0.70918810  0.68332489  1
  H  H342  1  0.30039738  0.70041992  0.65970125  1
  C  C343  1  0.19816986  0.52115561  0.60037473  1
  C  C344  1  0.13118753  0.53100162  0.53197440  1
  N  N345  1  0.13367026  0.64809662  0.72579301  1
  O  O346  1  0.27213760  0.51523165  0.71657510  1
  C  C347  1  0.27159736  0.50970305  0.66976263  1
  C  C348  1  0.02448374  0.69891379  0.56063088  1
  O  O349  1  0.08172925  0.54535964  0.51763426  1
  C  C350  1  0.01969995  0.73023623  0.52143967  1
  O  O351  1  0.14660294  0.72874173  0.66950467  1
  O  O352  1  0.48322482  0.55791712  0.64194337  1
  C  C353  1  0.08564787  0.50182365  0.74606857  1
  N  N354  1  0.00295144  0.61483066  0.54187714  1
  O  O355  1  0.16386993  0.50245859  0.50922660  1
  C  C356  1  0.37739286  0.74605776  0.67488678  1
  N  N357  1  0.03845297  0.67558856  0.72978554  1
  C  C358  1  0.10403080  0.74904885  0.59219503  1
  H  H359  1  0.14787270  0.62128637  0.74683946  1
  C  C360  1  0.30100617  0.63943047  0.73142150  1
  Cu  Cu361  1  0.34354067  0.54536914  0.74705914  1
  C  C362  1  0.42597826  0.72621836  0.74755425  1
  C  C363  1  0.34603235  0.96606853  0.50142366  1
  C  C364  1  0.42206639  0.96091602  0.67775458  1
  C  C365  1  0.42163425  0.75661321  0.70713769  1
  O  O366  1  0.34575747  0.92548192  0.57753142  1
  Cu  Cu367  1  0.37637180  0.87077699  0.60605183  1
  C  C368  1  0.14778539  0.75595742  0.63250378  1
  O  O369  1  0.34314427  0.76136837  0.60204644  1
  O  O370  1  0.40533782  0.81816241  0.62979441  1
  O  O371  1  0.18508484  0.78676684  0.62978427  1
  H  H372  1  0.13963526  0.80575175  0.54893159  1
  C  C373  1  0.05929020  0.76799847  0.51821728  1
  O  O374  1  0.33865344  0.87968609  0.51325781  1
  C  C375  1  0.34327453  0.91928896  0.52936734  1
  H  H376  1  0.44988110  0.78796173  0.69933070  1
  H  H377  1  0.40476513  0.88753057  0.69559916  1
  C  C378  1  0.37559475  0.77709417  0.63175539  1
  C  C379  1  0.10604407  0.77490846  0.55044206  1
  O  O380  1  0.38748222  0.90380935  0.66741172  1
  O  O381  1  0.44291468  0.99547593  0.68323104  1
  H  H382  1  0.18381758  0.66436017  0.80580546  1
  C  C383  1  0.15336826  0.68955146  0.82575457  1
  C  C384  1  0.16021099  0.70454773  0.87243938  1
  O  O385  1  0.24431714  0.65748996  0.87306106  1
  C  C386  1  0.21233496  0.68233487  0.89861972  1
  N  N387  1  0.29260452  0.69256727  0.83293102  1
  O  O388  1  0.22796605  0.69139769  0.94112590  1
  C  C389  1  0.10030811  0.70143415  0.80115322  1
  O  O390  1  0.40466288  0.55922699  0.78989931  1
  H  H391  1  0.38317911  0.67201396  0.79464978  1
  C  C392  1  0.44672325  0.52728610  0.79754473  1
  C  C393  1  0.30023765  0.73337204  0.83382525  1
  C  C394  1  0.06055331  0.73469023  0.82272046  1
  C  C395  1  0.12059731  0.73393142  0.89717771  1
  O  O396  1  0.08693353  0.60216904  0.93978640  1
  C  C397  1  0.06705497  0.57014076  0.95341618  1
  C  C398  1  0.08640349  0.67549027  0.75434601  1
  O  O399  1  0.04083081  0.52615478  0.76452936  1
  Cu  Cu400  1  0.21453679  0.64193595  0.98963604  1
  H  H401  1  0.01889494  0.74520119  0.80543023  1
  O  O402  1  0.30953271  0.60766403  0.76122718  1
  C  C403  1  0.46856343  0.74633437  0.78237422  1
  C  C404  1  0.38373802  0.68982789  0.75852345  1
  O  O405  1  0.49626683  0.53666758  0.78753109  1
  H  H406  1  0.34046491  0.50670327  0.84252870  1
  C  C407  1  0.07206076  0.74875471  0.86982436  1
  H  H408  1  0.12277951  0.74409347  0.93691627  1
  O  O409  1  0.26336914  0.53254675  0.99600847  1
  C  C410  1  0.12131082  0.82631792  0.99567387  1
  O  O411  1  0.47628494  0.75408550  0.90427436  1
  C  C412  1  0.04828660  0.93729630  0.99855906  1
  Cu  Cu413  1  0.01381380  0.84607330  0.96392524  1
  C  C414  1  0.47971631  0.78774760  0.93626492  1
  O  O415  1  0.00644142  0.90719568  0.99590826  1
  O  O416  1  0.45540910  0.84413074  0.76043670  1
  N  N417  1  0.10542462  0.85405418  0.96829083  1
  O  O418  1  0.43377070  0.91536535  0.79271727  1
  H  H419  1  0.23364522  0.80736510  0.87935168  1
  C  C420  1  0.02438055  0.78397435  0.88654469  1
  H  H421  1  0.19618489  0.75316858  0.98380739  1
  Cu  Cu422  1  0.14164523  0.91543300  0.93883254  1
  O  O423  1  0.07846550  0.94876874  0.96260290  1
  C  C424  1  0.33510704  0.88703754  0.83885348  1
  C  C425  1  0.24491837  0.90219148  0.88950561  1
  C  C426  1  0.42501292  0.87378530  0.78832035  1
  C  C427  1  0.27201516  0.81947402  0.85898910  1
  C  C428  1  0.36852098  0.85429819  0.81152279  1
  H  H429  1  0.38347460  0.77902424  0.78972874  1
  C  C430  1  0.35864142  0.80433413  0.80981946  1
  O  O431  1  0.20153379  0.88155539  0.91160275  1
  O  O432  1  0.02815343  0.79101309  0.93422034  1
  O  O433  1  0.25163572  0.94530611  0.88675981  1
  H  H434  1  0.34934847  0.92421076  0.84501614  1
  O  O435  1  0.46258223  0.78570151  0.97588859  1
  C  C436  1  0.28638267  0.86841670  0.86256800  1
  C  C437  1  0.30938650  0.78699058  0.83429602  1
  N  N438  1  0.87668018  0.07203842  0.14275210  1
  H  H439  1  0.86367655  0.09949286  0.16728088  1
  C  C440  1  0.92750973  0.08781727  0.12150592  1
  H  H441  1  0.64103363  0.17203391  0.15372798  1
  O  O442  1  0.78597785  0.05387883  0.09552400  1
  C  C443  1  0.60405453  0.15316674  0.17061152  1
  C  C444  1  0.95023757  0.14156194  0.13439153  1
  C  C445  1  0.73238071  0.20182729  0.19233418  1
  C  C446  1  0.61169303  0.10558354  0.18785956  1
  N  N447  1  0.74469166  0.16256739  0.11195232  1
  Cu  Cu448  1  0.82666197  0.01549966  0.14122475  1
  C  C449  1  0.74063542  0.20038939  0.14079267  1
  H  H450  1  0.76283848  0.12735860  0.20812057  1
  C  C451  1  0.66598216  0.08051302  0.17553241  1
  N  N452  1  0.71331327  0.07305485  0.16229388  1
  C  C453  1  0.73850640  0.15869234  0.22185359  1
  N  N454  1  0.74590295  0.17883991  0.06673421  1
  C  C455  1  0.74826720  0.05364245  0.06176104  1
  C  C456  1  0.91633306  0.17857729  0.11568294  1
  N  N457  1  0.96050517  0.06277465  0.09316715  1
  H  H458  1  0.87306172  0.17092499  0.09758362  1
  C  C459  1  0.70490139  0.24192233  0.21354625  1
  C  C460  1  0.73872020  0.22677935  0.06898277  1
  C  C461  1  0.56018121  0.08328523  0.20563442  1
  C  C462  1  0.94028568  0.22456472  0.12156966  1
  C  C463  1  0.54850221  0.17967495  0.17540690  1
  H  H464  1  0.85204232  0.09829770  0.03958795  1
  H  H465  1  0.56009127  0.04655261  0.22121123  1
  N  N466  1  0.75637227  0.02091998  0.17864436  1
  C  C467  1  0.54631783  0.23161066  0.16784755  1
  N  N468  1  0.73886582  0.24722696  0.11726267  1
  C  C469  1  0.99040519  0.23734732  0.14577778  1
  N  N470  1  0.55417375  0.01090981  0.01506597  1
  O  O471  1  0.69968561  0.03738798  0.06274696  1
  H  H472  1  0.94512292  0.00283430  0.06472627  1
  C  C473  1  0.50614941  0.10653218  0.20824925  1
  H  H474  1  0.99511271  0.08262683  0.08014734  1
  H  H475  1  0.51095122  0.08789136  0.05065532  1
  C  C476  1  0.50943952  0.10824056  0.01767221  1
  C  C477  1  0.81880831  0.10049448  0.00965982  1
  C  C478  1  0.76264367  0.08073486  0.01500675  1
  C  C479  1  0.73947087  0.49345872  0.13519670  1
  N  N480  1  0.93332145  0.49239906  0.23803826  1
  O  O481  1  0.59554667  0.25322316  0.16158399  1
  H  H482  1  0.69616619  0.27488027  0.19178708  1
  Cu  Cu483  1  0.92107268  0.34273920  0.03746332  1
  H  H484  1  0.77252997  0.27270046  0.12820825  1
  N  N485  1  0.97426402  0.49576700  0.18007974  1
  O  O486  1  0.86344161  0.25768640  0.07483226  1
  C  C487  1  0.83625331  0.34396928  0.24604148  1
  C  C488  1  0.84917714  0.49706398  0.13690876  1
  C  C489  1  0.53912836  0.40912218  0.01909132  1
  C  C490  1  0.73644810  0.25890979  0.02716818  1
  C  C491  1  0.77295808  0.39012687  0.03032009  1
  O  O492  1  0.74236647  0.45277920  0.15939912  1
  O  O493  1  0.80258850  0.29939046  0.17933609  1
  O  O494  1  0.79793093  0.38948435  0.07274195  1
  C  C495  1  0.63370392  0.37631204  0.12381979  1
  C  C496  1  0.58234337  0.39095330  0.09438815  1
  C  C497  1  0.52868426  0.40067265  0.11560370  1
  O  O498  1  0.76515001  0.42560086  0.00770595  1
  O  O499  1  0.93316630  0.30991154  0.09454564  1
  C  C500  1  0.75906358  0.30535836  0.04079478  1
  O  O501  1  0.81465167  0.37805686  0.17083325  1
  C  C502  1  0.58935469  0.39465857  0.04433535  1
  C  C503  1  0.90861911  0.26728455  0.09499789  1
  O  O504  1  0.68321196  0.36644040  0.10336121  1
  H  H505  1  0.62921441  0.38140585  0.02631006  1
  C  C506  1  0.75369425  0.34158642  0.00793441  1
  H  H507  1  0.85744564  0.42104352  0.23959006  1
  H  H508  1  0.51967773  0.40005501  0.15400766  1
  H  H509  1  0.77877552  0.31046302  0.07624850  1
  O  O510  1  0.62736415  0.36860797  0.16654636  1
  O  O511  1  0.97037264  0.39836314  0.05085161  1
  C  C512  1  0.81873698  0.33805878  0.19481476  1
  Cu  Cu513  1  0.75466430  0.39347971  0.12547479  1
  Cu  Cu514  1  0.60834548  0.31091943  0.19448600  1
  H  H515  1  0.85143530  0.46637693  0.16025555  1
  O  O516  1  0.73222799  0.12110111  0.34325902  1
  H  H517  1  0.72972046  0.10029727  0.44847573  1
  H  H518  1  0.66720081  0.19433160  0.32298253  1
  C  C519  1  0.73207738  0.11292700  0.29729341  1
  O  O520  1  0.75157788  0.18312481  0.42218913  1
  O  O521  1  0.74184378  0.07399479  0.28065927  1
  Cu  Cu522  1  0.77230324  0.17599805  0.36211841  1
  C  C523  1  0.68838614  0.19572910  0.28865193  1
  O  O524  1  0.67926403  0.23283787  0.44002977  1
  C  C525  1  0.70043180  0.19390811  0.43969673  1
  O  O526  1  0.80935108  0.23018570  0.34014233  1
  C  C527  1  0.68762044  0.10937868  0.46686274  1
  C  C528  1  0.66440190  0.15538008  0.46726844  1
  C  C529  1  0.71671505  0.15786070  0.26730557  1
  C  C530  1  0.68322080  0.23732674  0.25952610  1
  O  O531  1  0.90877757  0.16507619  0.40781786  1
  C  C532  1  0.90632938  0.13700647  0.38197879  1
  O  O533  1  0.59562665  0.01378231  0.35595014  1
  N  N534  1  0.69967781  0.00805733  0.45608700  1
  H  H535  1  0.59520072  0.20906198  0.48326806  1
  H  H536  1  0.67251956  0.01601015  0.29406379  1
  C  C537  1  0.66835273  0.02125110  0.49468221  1
  C  C538  1  0.61425715  0.17163713  0.49099539  1
  C  C539  1  0.65670123  0.07457679  0.49695353  1
  Cu  Cu540  1  0.82616127  0.24672023  0.46230532  1
  C  C541  1  0.59045484  0.34639635  0.47480458  1
  O  O542  1  0.62892589  0.27499265  0.32195528  1
  O  O543  1  0.64549210  0.31473950  0.25367288  1
  N  N544  1  0.89389684  0.48327942  0.33494366  1
  O  O545  1  0.54871782  0.43432595  0.28680640  1
  C  C546  1  0.65196477  0.27772762  0.28029236  1
  C  C547  1  0.83906477  0.30930332  0.32443760  1
  N  N548  1  0.79577342  0.31320869  0.48774483  1
  H  H549  1  0.85952364  0.35958006  0.38130759  1
  C  C550  1  0.93998935  0.29084293  0.45229043  1
  H  H551  1  0.81377189  0.27039757  0.26189546  1
  C  C552  1  0.74868499  0.32666410  0.49534017  1
  O  O553  1  0.83410972  0.27953114  0.40053376  1
  C  C554  1  0.85484400  0.35403662  0.34240071  1
  H  H555  1  0.65799832  0.30159664  0.44031168  1
  C  C556  1  0.64592408  0.32557454  0.47186578  1
  H  H557  1  0.96253210  0.27355962  0.35452531  1
  N  N558  1  0.90629309  0.27966258  0.48015581  1
  C  C559  1  0.98269148  0.31271272  0.42020081  1
  C  C560  1  0.82770673  0.30438549  0.27600774  1
  C  C561  1  0.83072850  0.26762620  0.35769546  1
  C  C562  1  0.87943612  0.44538940  0.32256979  1
  H  H563  1  0.94357084  0.46577991  0.26128288  1
  C  C564  1  0.85595776  0.38916427  0.26198811  1
  C  C565  1  0.86554748  0.39440553  0.31162686  1
  O  O566  1  0.55813161  0.30154432  0.40597160  1
  C  C567  1  0.54625623  0.33212921  0.43780136  1
  C  C568  1  0.98513519  0.30493359  0.37001618  1
  Cu  Cu569  1  0.56739216  0.31432993  0.34268568  1
  C  C570  1  0.52089146  0.41539228  0.25776514  1
  H  H571  1  0.58501801  0.06188005  0.54614574  1
  O  O572  1  0.70636102  0.07390596  0.66928491  1
  H  H573  1  0.77483788  0.14742589  0.56745217  1
  C  C574  1  0.78472716  0.16199904  0.60197343  1
  O  O575  1  0.72752761  0.06758486  0.59436114  1
  C  C576  1  0.73501372  0.08608651  0.63343086  1
  C  C577  1  0.76888981  0.13470762  0.64032590  1
  C  C578  1  0.77427539  0.15526841  0.68485274  1
  H  H579  1  0.76224853  0.13330512  0.71619073  1
  C  C580  1  0.80692775  0.21025510  0.60928865  1
  C  C581  1  0.79470954  0.20378453  0.69336652  1
  C  C582  1  0.52604498  0.14851643  0.53732258  1
  O  O583  1  0.80845314  0.22538008  0.52734519  1
  C  C584  1  0.81427802  0.23146094  0.65401225  1
  C  C585  1  0.60504715  0.08840768  0.52142873  1
  C  C586  1  0.79850613  0.22348227  0.74259374  1
  C  C587  1  0.58381325  0.13538905  0.51545305  1
  O  O588  1  0.50592490  0.11288678  0.56021231  1
  H  H589  1  0.52412046  0.24605664  0.70060404  1
  H  H590  1  0.76425981  0.00454397  0.53310177  1
  C  C591  1  0.81931304  0.24190606  0.56845457  1
  H  H592  1  0.52772180  0.39773710  0.50993546  1
  C  C593  1  0.95388379  0.49042136  0.60249753  1
  O  O594  1  0.55068928  0.45558453  0.57152611  1
  H  H595  1  0.82407418  0.27031970  0.65755459  1
  C  C596  1  0.63301517  0.41434264  0.71417387  1
  Cu  Cu597  1  0.87055672  0.33252611  0.52619511  1
  N  N598  1  0.90828534  0.49654176  0.58511816  1
  C  C599  1  0.60296268  0.44244499  0.56745165  1
  C  C600  1  0.95251200  0.38809489  0.71970405  1
  Cu  Cu601  1  0.65324221  0.48743245  0.64662507  1
  O  O602  1  0.61372027  0.44907587  0.69034047  1
  C  C603  1  0.54191095  0.31443425  0.66447757  1
  C  C604  1  0.56894056  0.35994544  0.66986787  1
  C  C605  1  0.54936674  0.28098354  0.70046540  1
  H  H606  1  0.56072583  0.39062153  0.64610384  1
  C  C607  1  0.93741534  0.38572531  0.67238876  1
  C  C608  1  0.61633600  0.40120220  0.53519525  1
  O  O609  1  0.91292570  0.37027300  0.57195870  1
  C  C610  1  0.67519650  0.38419157  0.53304059  1
  H  H611  1  0.70866254  0.40310309  0.55269436  1
  C  C612  1  0.59274654  0.28823034  0.73667371  1
  O  O613  1  0.86010897  0.42561835  0.73832430  1
  O  O614  1  0.64760971  0.46177266  0.58720299  1
  H  H615  1  0.89245715  0.39669868  0.66233715  1
  C  C616  1  0.60967814  0.36505193  0.70708603  1
  C  C617  1  0.97953693  0.36418452  0.64349367  1
  O  O618  1  0.84564669  0.28170153  0.57359613  1
  C  C619  1  0.96422759  0.35851886  0.59009370  1
  O  O620  1  0.67690418  0.41918167  0.74225551  1
  C  C621  1  0.62302921  0.33207639  0.74260964  1
  C  C622  1  0.57183069  0.38131627  0.50709674  1
  C  C623  1  0.68804571  0.34304675  0.50536833  1
  O  O624  1  0.64096825  0.11535850  0.90574441  1
  C  C625  1  0.69019172  0.13074440  0.90317314  1
  H  H626  1  0.79900287  0.16009712  0.90562732  1
  C  C627  1  0.78988277  0.13594114  0.93507839  1
  C  C628  1  0.73254116  0.11684683  0.94096479  1
  C  C629  1  0.88869833  0.15956637  0.96223751  1
  O  O630  1  0.71039405  0.15770637  0.86732677  1
  C  C631  1  0.83382562  0.12925057  0.96997957  1
  N  N632  1  0.89319536  0.18387362  0.91991958  1
  N  N633  1  0.94728376  0.20593293  0.91893259  1
  N  N634  1  0.79268615  0.19629755  0.78374962  1
  Cu  Cu635  1  0.67543010  0.20716456  0.83302292  1
  H  H636  1  0.69098276  0.21300865  0.97363328  1
  H  H637  1  0.91428898  0.18960024  0.84757547  1
  H  H638  1  0.67477220  0.07702401  0.98927531  1
  C  C639  1  0.72016886  0.08881067  0.98080584  1
  H  H640  1  0.88311726  0.20279921  0.80356960  1
  O  O641  1  0.92065085  0.19228616  0.81502674  1
  C  C642  1  0.97224208  0.19690988  0.96360047  1
  N  N643  1  0.80455070  0.22406396  0.82109735  1
  O  O644  1  0.57117544  0.21019251  0.76910118  1
  H  H645  1  0.95662514  0.05485813  0.92197392  1
  O  O646  1  0.91683914  0.04131408  0.92720099  1
  O  O647  1  0.65531203  0.24145735  0.89220586  1
  H  H648  1  0.53359348  0.09805707  0.89655234  1
  C  C649  1  0.93059391  0.02738995  0.97765514  1
  C  C650  1  0.54495479  0.03541857  0.97641436  1
  O  O651  1  0.97118264  0.04616918  0.99604676  1
  N  N652  1  0.55198943  0.00794642  0.93285190  1
  N  N653  1  0.93699550  0.16677680  0.98897462  1
  O  O654  1  0.51470404  0.17815897  0.85197365  1
  H  H655  1  0.51894740  0.00646687  0.90744695  1
  C  C656  1  0.52715531  0.08812131  0.97430458  1
  C  C657  1  0.52228717  0.11383339  0.93114987  1
  C  C658  1  0.50151648  0.16156822  0.93307152  1
  C  C659  1  0.71201426  0.24879326  0.98144078  1
  C  C660  1  0.60273844  0.24848547  0.76903428  1
  N  N661  1  0.81917235  0.26896465  0.75351543  1
  O  O662  1  0.76845233  0.46503806  0.88991449  1
  Cu  Cu663  1  0.90799510  0.47537377  0.83472072  1
  H  H664  1  0.83951775  0.41539718  0.92754888  1
  H  H665  1  0.75587579  0.35156660  0.80004826  1
  Cu  Cu666  1  0.68917103  0.46971180  0.78528999  1
  C  C667  1  0.82152221  0.26792443  0.80160859  1
  C  C668  1  0.88076358  0.34863254  0.89926449  1
  O  O669  1  0.64160630  0.25652597  0.80060344  1
  O  O670  1  0.71309555  0.42773548  0.83415989  1
  C  C671  1  0.75794837  0.43243376  0.86233049  1
  C  C672  1  0.91890438  0.34209059  0.94271519  1
  O  O673  1  0.55056185  0.36620757  0.84678860  1
  O  O674  1  0.95783092  0.47324614  0.89263681  1
  O  O675  1  0.95685462  0.31243957  0.94111625  1
  H  H676  1  0.65150040  0.33904061  0.77313466  1
  C  C677  1  0.70614371  0.28735243  0.95070812  1
  Cu  Cu678  1  0.60953219  0.36768546  0.88982123  1
  H  H679  1  0.51151700  0.45075344  0.80962412  1
  C  C680  1  0.72911526  0.33354456  0.96449914  1
  H  H681  1  0.97427994  0.42918491  0.97228552  1
  C  C682  1  0.82824040  0.31327798  0.83292234  1
  C  C683  1  0.87542595  0.31217442  0.86516540  1
  C  C684  1  0.67585364  0.28290130  0.90523800  1
  O  O685  1  0.90872917  0.36814431  0.98103735  1
  C  C686  1  0.84032594  0.38801884  0.89705132  1
  C  C687  1  0.54423355  0.41565077  0.96560033  1
  C  C688  1  0.79702662  0.38796890  0.86144386  1
  O  O689  1  0.59408716  0.40038737  0.94587413  1
  O  O690  1  0.50360331  0.43269095  0.94429199  1
  H  H691  1  0.72838577  0.36590915  0.94160939  1
  C  C692  1  0.78903142  0.35222521  0.82777496  1
  H  H693  1  0.90387878  0.27952428  0.86367164  1
  O  O694  1  0.92251042  0.41874632  0.79849755  1
  O  O695  1  0.67097665  0.32022569  0.87963752  1
  C  C696  1  0.90608028  0.41180119  0.75398551  1
  H  H697  1  0.75007537  0.56975426  0.07757633  1
  C  C698  1  0.84168184  0.62657389  0.04289933  1
  Cu  Cu699  1  0.76629529  0.70152661  0.05615631  1
  C  C700  1  0.84349404  0.58067592  0.07473750  1
  C  C701  1  0.79360629  0.55733201  0.09034624  1
  C  C702  1  0.89841790  0.56264785  0.08701472  1
  O  O703  1  0.78027053  0.68690082  0.12004442  1
  H  H704  1  0.88480209  0.68646155  0.12819606  1
  H  H705  1  0.93831799  0.57855980  0.07449562  1
  C  C706  1  0.77359659  0.64759115  0.14814780  1
  C  C707  1  0.88514614  0.65499988  0.15330651  1
  C  C708  1  0.89956654  0.52428473  0.12058587  1
  C  C709  1  0.83262090  0.63036657  0.16700972  1
  C  C710  1  0.93816558  0.63917702  0.17624085  1
  C  C711  1  0.83145206  0.59115465  0.19607162  1
  O  O712  1  0.72781401  0.62955710  0.15814949  1
  O  O713  1  0.78848483  0.64228743  0.03553575  1
  C  C714  1  0.88579119  0.57563622  0.21569696  1
  C  C715  1  0.93882845  0.59983970  0.20764221  1
  H  H716  1  0.79195340  0.57251100  0.20544524  1
  C  C717  1  0.79577289  0.51632460  0.12095587  1
  C  C718  1  0.57123513  0.74403056  0.03021166  1
  H  H719  1  0.54194160  0.71443855  0.04231218  1
  O  O720  1  0.99919007  0.69072917  0.12911344  1
  H  H721  1  0.97972085  0.58982596  0.22559501  1
  O  O722  1  0.88524580  0.64345086  0.02482485  1
  O  O723  1  0.53152191  0.74717900  0.12050710  1
  O  O724  1  0.69145060  0.50896548  0.12168229  1
  C  C725  1  0.89938163  0.53071575  0.24871439  1
  O  O726  1  0.69383517  0.73324607  0.24181153  1
  C  C727  1  0.96064913  0.50579720  0.13622810  1
  C  C728  1  0.99590202  0.66448283  0.16309613  1
  H  H729  1  0.99109279  0.97161877  0.19327227  1
  H  H730  1  0.72845121  0.92655300  0.23590456  1
  C  C731  1  0.64670236  0.82020828  0.00095269  1
  H  H732  1  0.96182638  0.78182630  0.20018767  1
  C  C733  1  0.53615943  0.91565353  0.16824812  1
  C  C734  1  0.66405232  0.98466180  0.22193498  1
  C  C735  1  0.80822774  0.93838157  0.00715019  1
  N  N736  1  0.71994891  0.88683867  0.01020420  1
  C  C737  1  0.87982485  0.94728369  0.12667966  1
  C  C738  1  0.85738349  0.81695937  0.14877770  1
  H  H739  1  0.64666085  0.84498981  0.07522068  1
  C  C740  1  0.81820386  0.92989261  0.05470298  1
  C  C741  1  0.86665667  0.95473189  0.07475372  1
  C  C742  1  0.83218387  0.79808425  0.23134713  1
  O  O743  1  0.50537491  0.87793595  0.18215676  1
  H  H744  1  0.72459622  0.75298873  0.15658102  1
  N  N745  1  0.97600705  0.81440381  0.21473103  1
  Cu  Cu746  1  0.53981396  0.81930891  0.19876843  1
  O  O747  1  0.74411388  0.76557490  0.07075533  1
  C  C748  1  0.79174393  0.78987107  0.08231358  1
  O  O749  1  0.92379121  0.96530704  0.14390008  1
  N  N750  1  0.75612573  0.94507316  0.21404502  1
  H  H751  1  0.79138664  0.90602934  0.07537487  1
  H  H752  1  0.63534743  0.94702471  0.15733228  1
  Cu  Cu753  1  0.83681039  0.91049801  0.21680474  1
  C  C754  1  0.62443863  0.95955286  0.19187660  1
  O  O755  1  0.54159383  0.92743079  0.12766347  1
  C  C756  1  0.56665247  0.77964128  0.11077108  1
  O  O757  1  0.84131134  0.92321394  0.15195777  1
  C  C758  1  0.90691180  0.98290763  0.05007223  1
  C  C759  1  0.72917666  0.98692025  0.20301196  1
  C  C760  1  0.92859259  0.84017366  0.21735928  1
  O  O761  1  0.58127140  0.81251319  0.14191928  1
  C  C762  1  0.56879840  0.94649360  0.20699896  1
  C  C763  1  0.86825800  0.81664354  0.19632685  1
  C  C764  1  0.62923893  0.81846448  0.04767205  1
  H  H765  1  0.88499163  0.83612935  0.12373454  1
  C  C766  1  0.77948574  0.77583677  0.21384068  1
  N  N767  1  0.92099038  0.88363246  0.23298693  1
  C  C768  1  0.80410101  0.79510084  0.13381953  1
  C  C769  1  0.58652820  0.78296117  0.06125050  1
  O  O770  1  0.82552936  0.80551254  0.05332384  1
  C  C771  1  0.76347025  0.77640060  0.16608818  1
  C  C772  1  0.89235913  0.99186128  0.00294383  1
  C  C773  1  0.74326880  0.75212799  0.24978800  1
  N  N774  1  0.56327712  0.96382920  0.00313622  1
  C  C775  1  0.84241078  0.60002278  0.38503565  1
  C  C776  1  0.89043123  0.63097331  0.37907602  1
  C  C777  1  0.82920212  0.56792287  0.42014479  1
  O  O778  1  0.75342630  0.58263872  0.34433671  1
  C  C779  1  0.79553439  0.60743156  0.34696212  1
  H  H780  1  0.89497091  0.65318769  0.34584191  1
  O  O781  1  0.80189661  0.64512673  0.31734089  1
  C  C782  1  0.92928616  0.62966699  0.41708239  1
  H  H783  1  0.78910081  0.54455940  0.42014612  1
  C  C784  1  0.91825141  0.59892555  0.45591079  1
  C  C785  1  0.86875097  0.56896114  0.45940947  1
  H  H786  1  0.59364384  0.63391411  0.39836938  1
  C  C787  1  0.61461301  0.63533101  0.43194756  1
  C  C788  1  0.66212736  0.66674754  0.43571340  1
  Cu  Cu789  1  0.76629085  0.70228246  0.33203156  1
  C  C790  1  0.67611839  0.69400759  0.39373627  1
  C  C791  1  0.59074419  0.61491572  0.47332323  1
  C  C792  1  0.53633319  0.58651186  0.47107433  1
  O  O793  1  0.63333449  0.71276694  0.37276989  1
  N  N794  1  0.88008545  0.53285992  0.29216479  1
  H  H795  1  0.71602710  0.70947234  0.48168018  1
  C  C796  1  0.68474607  0.68018877  0.47952341  1
  O  O797  1  0.72958451  0.70420107  0.38983009  1
  C  C798  1  0.98324868  0.65874142  0.41898647  1
  H  H799  1  0.95082143  0.60174421  0.48459686  1
  O  O800  1  0.54558876  0.74102366  0.27318417  1
  O  O801  1  0.51446274  0.57399297  0.43297692  1
  O  O802  1  0.99576673  0.68482727  0.38441349  1
  H  H803  1  0.98756649  0.71938250  0.49318174  1
  Cu  Cu804  1  0.62410982  0.75000529  0.27177279  1
  Cu  Cu805  1  0.98135800  0.91641848  0.25996836  1
  N  N806  1  0.98171492  0.99584872  0.34832264  1
  H  H807  1  0.50908474  0.94170726  0.26891727  1
  O  O808  1  0.59408989  0.80749692  0.35827049  1
  C  C809  1  0.64606583  0.99605761  0.26784655  1
  H  H810  1  0.52634665  0.88785674  0.47479627  1
  C  C811  1  0.68661967  0.95985498  0.45214682  1
  C  C812  1  0.63848538  0.82453129  0.33657415  1
  Cu  Cu813  1  0.59263478  0.76322245  0.41070745  1
  C  C814  1  0.66488651  0.88964323  0.39684158  1
  C  C815  1  0.81344616  0.93168903  0.31414890  1
  N  N816  1  0.99003681  0.94927676  0.33804850  1
  O  O817  1  0.64768530  0.81208386  0.29327714  1
  C  C818  1  0.69967767  0.92828445  0.41073219  1
  H  H819  1  0.62706560  0.88174041  0.42086391  1
  O  O820  1  0.76673945  0.75221956  0.29199176  1
  C  C821  1  0.67592633  0.86232456  0.35526848  1
  C  C822  1  0.76201111  0.91471461  0.34702990  1
  O  O823  1  0.55964284  0.80725719  0.45075628  1
  C  C824  1  0.56286568  0.99767382  0.32757932  1
  H  H825  1  0.84195830  0.80400802  0.26978737  1
  O  O826  1  0.50483333  0.99217316  0.33683057  1
  O  O827  1  0.81867870  0.89889953  0.27997393  1
  C  C828  1  0.75151775  0.94339300  0.38499764  1
  C  C829  1  0.72898055  0.87511526  0.33224557  1
  O  O830  1  0.84346785  0.96622862  0.31649260  1
  C  C831  1  0.88670945  0.81368265  0.34771150  1
  H  H832  1  0.78331346  0.97273443  0.39568199  1
  O  O833  1  0.87328387  0.78236985  0.36646328  1
  C  C834  1  0.58781298  0.98212119  0.28108338  1
  H  H835  1  0.74421064  0.85750077  0.29923391  1
  N  N836  1  0.65364699  0.94451451  0.49141490  1
  O  O837  1  0.50276692  0.97337424  0.48063910  1
  C  C838  1  0.50408702  0.77202862  0.27786470  1
  C  C839  1  0.55823353  0.79868074  0.49676401  1
  O  O840  1  0.50075787  0.81069395  0.25462604  1
  C  C841  1  0.54841669  0.95615613  0.25189859  1
  C  C842  1  0.68904560  0.66846965  0.56728155  1
  N  N843  1  0.67496293  0.65001578  0.61050215  1
  H  H844  1  0.64385994  0.62407679  0.61852486  1
  H  H845  1  0.80496640  0.62775304  0.61594100  1
  C  C846  1  0.88314022  0.69200727  0.65287772  1
  C  C847  1  0.87114683  0.63956810  0.67452733  1
  C  C848  1  0.82710543  0.61471337  0.64847994  1
  N  N849  1  0.92625597  0.69231414  0.61799857  1
  N  N850  1  0.94354241  0.64931320  0.60190041  1
  C  C851  1  0.80644152  0.56843368  0.66561171  1
  C  C852  1  0.89404612  0.62281844  0.71721322  1
  C  C853  1  0.82722053  0.55436897  0.70853824  1
  H  H854  1  0.59501149  0.60597503  0.54888033  1
  N  N855  1  0.86579827  0.73181931  0.66926599  1
  O  O856  1  0.74860253  0.56246229  0.59861323  1
  C  C857  1  0.76016587  0.54297477  0.63459811  1
  C  C858  1  0.71176633  0.67150918  0.64138949  1
  N  N859  1  0.73763366  0.70023512  0.57210368  1
  N  N860  1  0.74676939  0.70476969  0.61901780  1
  C  C861  1  0.69425599  0.66502711  0.69355330  1
  H  H862  1  0.71697903  0.58663740  0.69792422  1
  C  C863  1  0.70014211  0.62043806  0.71623198  1
  C  C864  1  0.53116635  0.56282010  0.62748679  1
  C  C865  1  0.66811037  0.70631792  0.71479651  1
  O  O866  1  0.57926518  0.56788840  0.61167637  1
  N  N867  1  0.90924936  0.52998194  0.52916089  1
  C  C868  1  0.66176468  0.65653073  0.52042418  1
  C  C869  1  0.61605424  0.62198415  0.51892310  1
  H  H870  1  0.97601311  0.58648910  0.55424753  1
  Cu  Cu871  1  0.53244126  0.51406587  0.53839746  1
  H  H872  1  0.98701702  0.52383138  0.69138121  1
  C  C873  1  0.98747160  0.65121505  0.56835587  1
  H  H874  1  0.92892626  0.64372059  0.73505411  1
  C  C875  1  0.87223937  0.57889124  0.73431050  1
  N  N876  1  0.80811621  0.51773677  0.52334558  1
  C  C877  1  0.86128574  0.53644631  0.50386381  1
  O  O878  1  0.51954644  0.57249710  0.51228916  1
  H  H879  1  0.66477077  0.74048252  0.69305328  1
  O  O880  1  0.73240093  0.50479154  0.64980803  1
  H  H881  1  0.81125865  0.51945244  0.72225764  1
  H  H882  1  0.79929400  0.50212045  0.55517910  1
  H  H883  1  0.77207652  0.54149355  0.51643003  1
  C  C884  1  0.61276791  0.98340426  0.64179999  1
  C  C885  1  0.55172013  0.82945768  0.58104486  1
  C  C886  1  0.52341272  0.91787828  0.59160052  1
  H  H887  1  0.87843963  0.76364558  0.65489916  1
  N  N888  1  0.64527854  0.98247955  0.52021706  1
  O  O889  1  0.78135601  0.97302531  0.52763621  1
  O  O890  1  0.61989972  0.96593157  0.67476647  1
  C  C891  1  0.53933312  0.86993701  0.61132203  1
  C  C892  1  0.54446070  0.83863708  0.53336785  1
  H  H893  1  0.56485425  0.79335097  0.59644318  1
  C  C894  1  0.50394090  0.97102387  0.52240510  1
  N  N895  1  0.54870159  0.86005203  0.70312289  1
  O  O896  1  0.56295041  0.75907429  0.51258977  1
  C  C897  1  0.51655932  0.92134579  0.54453439  1
  H  H898  1  0.54776883  0.89646167  0.71691148  1
  H  H899  1  0.52301639  0.95106613  0.61313354  1
  H  H900  1  0.74743388  0.95724054  0.51578165  1
  C  C901  1  0.52747652  0.88187444  0.51329668  1
  C  C902  1  0.54387109  0.86282019  0.66107657  1
  O  O903  1  0.67127918  0.56844809  0.83144505  1
  C  C904  1  0.68107716  0.56969894  0.79070920  1
  C  C905  1  0.65769300  0.65739833  0.78723622  1
  H  H906  1  0.63962456  0.65459141  0.82522264  1
  O  O907  1  0.58948098  0.70026231  0.91414977  1
  O  O908  1  0.94234347  0.57932137  0.79329061  1
  C  C909  1  0.57713924  0.69836353  0.95889646  1
  O  O910  1  0.54697233  0.66740064  0.97641109  1
  C  C911  1  0.89477895  0.55848114  0.77858707  1
  Cu  Cu912  1  0.54336529  0.73296475  0.86939811  1
  C  C913  1  0.65022611  0.70067128  0.76199874  1
  C  C914  1  0.68162521  0.61799471  0.76381713  1
  O  O915  1  0.70514777  0.53270616  0.76867493  1
  C  C916  1  0.59365120  0.74536869  0.98477177  1
  Cu  Cu917  1  0.99848561  0.53693000  0.82495054  1
  O  O918  1  0.87546096  0.51873284  0.79242879  1
  O  O919  1  0.61051132  0.73163283  0.83062558  1
  C  C920  1  0.62319847  0.74187146  0.78800954  1
  C  C921  1  0.50771729  0.83476345  0.91993703  1
  O  O922  1  0.98742222  0.80330610  0.86351278  1
  N  N923  1  0.50236947  0.75956410  0.80900926  1
  C  C924  1  0.51839771  0.87549814  0.94798175  1
  C  C925  1  0.55133462  0.87560107  0.84792720  1
  C  C926  1  0.55188786  0.91459689  0.92901861  1
  Cu  Cu927  1  0.53619622  0.81843221  0.76625273  1
  H  H928  1  0.64409647  0.78560104  0.93322074  1
  C  C929  1  0.75940714  0.90975813  0.98145649  1
  H  H930  1  0.83020378  0.97740058  0.94234480  1
  N  N931  1  0.74994008  0.89825930  0.93350185  1
  C  C932  1  0.55941631  0.96222550  0.95631947  1
  C  C933  1  0.68970021  0.85780451  0.97954765  1
  C  C934  1  0.84191715  0.97170421  0.97965135  1
  C  C935  1  0.62755305  0.78366805  0.97024523  1
  O  O936  1  0.61182017  0.78216782  0.77089941  1
  N  N937  1  0.70729723  0.86444776  0.93323862  1
  O  O938  1  0.56489283  0.87089354  0.80190583  1
  C  C939  1  0.52214394  0.83752801  0.87129044  1
  C  C940  1  0.56674905  0.91265628  0.88038237  1
  H  H941  1  0.59589969  0.94005241  0.86654593  1
  H  H942  1  0.50966178  0.87464457  0.98647365  1
  H  H943  1  0.50779028  0.80721862  0.84928812  1
