# generated using pymatgen
data_CuH16C20(N3O2)2
_symmetry_space_group_name_H-M   'P 1'
_cell_length_a   22.50875172
_cell_length_b   21.30666174
_cell_length_c   23.66730816
_cell_angle_alpha   90.00000000
_cell_angle_beta   90.00000000
_cell_angle_gamma   90.00000000
_symmetry_Int_Tables_number   1
_chemical_formula_structural   CuH16C20(N3O2)2
_chemical_formula_sum   'Cu24 H384 C480 N144 O96'
_cell_volume   11350.51815084
_cell_formula_units_Z   24
loop_
 _symmetry_equiv_pos_site_id
 _symmetry_equiv_pos_as_xyz
  1  'x, y, z'
loop_
 _atom_site_type_symbol
 _atom_site_label
 _atom_site_symmetry_multiplicity
 _atom_site_fract_x
 _atom_site_fract_y
 _atom_site_fract_z
 _atom_site_occupancy
  H  H0  1  0.24913761  0.36331466  0.03617644  1
  H  H1  1  0.45089547  0.04907743  0.06769742  1
  H  H2  1  0.09824631  0.39023016  0.14759815  1
  H  H3  1  0.20029339  0.42757619  0.19977580  1
  C  C4  1  0.18065201  0.38272310  0.09991815  1
  C  C5  1  0.06956466  0.15575018  0.22160801  1
  Cu  Cu6  1  0.37571052  0.46132340  0.00967441  1
  O  O7  1  0.39122142  0.37660216  0.00945898  1
  C  C8  1  0.11381246  0.29633566  0.11596594  1
  N  N9  1  0.04942656  0.28936021  0.12146344  1
  N  N10  1  0.32301977  0.38869155  0.20383230  1
  N  N11  1  0.02457888  0.13748116  0.04318728  1
  C  C12  1  0.15272154  0.25096563  0.08574310  1
  C  C13  1  0.32297938  0.06652478  0.18804492  1
  C  C14  1  0.43118492  0.04065400  0.02845358  1
  H  H15  1  0.02348100  0.23373356  0.03929871  1
  N  N16  1  0.28127744  0.12630515  0.09366601  1
  C  C17  1  0.05235746  0.24718633  0.15430860  1
  H  H18  1  0.35562028  0.19816656  0.04040594  1
  H  H19  1  0.19645868  0.42903293  0.10682516  1
  H  H20  1  0.29323186  0.49240493  0.16915380  1
  C  C21  1  0.09870106  0.04016864  0.13176538  1
  H  H22  1  0.25641578  0.48292418  0.06853394  1
  C  C23  1  0.03229224  0.18896823  0.01632722  1
  C  C24  1  0.31870321  0.42629832  0.07867399  1
  H  H25  1  0.13435018  0.08002508  0.13014243  1
  H  H26  1  0.28338668  0.26613372  0.23945772  1
  C  C27  1  0.36998959  0.15915487  0.22006948  1
  C  C28  1  0.20082534  0.27939426  0.06025837  1
  O  O29  1  0.43394988  0.31618171  0.07164015  1
  C  C30  1  0.12891057  0.36168700  0.12242541  1
  H  H31  1  0.34067900  0.24980921  0.16097085  1
  N  N32  1  0.31977663  0.23178021  0.12618437  1
  N  N33  1  0.40345477  0.32617577  0.17419600  1
  C  C34  1  0.03290880  0.19803938  0.18746841  1
  C  C35  1  0.33157328  0.13252588  0.17589088  1
  C  C36  1  0.35877464  0.36935898  0.16499390  1
  C  C37  1  0.35869930  0.38607482  0.10509479  1
  H  H38  1  0.29367153  0.26741157  0.11171755  1
  C  C39  1  0.30775051  0.16566087  0.12992344  1
  H  H40  1  0.19988166  0.30908754  0.18606453  1
  C  C41  1  0.20158935  0.32138595  0.23201906  1
  H  H42  1  0.43073465  0.30439256  0.14034932  1
  H  H43  1  0.23059370  0.25273515  0.03175673  1
  H  H44  1  0.35427379  0.09174881  0.05780226  1
  C  C45  1  0.39816561  0.35678209  0.05983499  1
  H  H46  1  0.39631269  0.47729507  0.20712431  1
  C  C47  1  0.21508478  0.34406311  0.06342290  1
  H  H48  1  0.12453520  0.38082412  0.23712542  1
  H  H49  1  0.14048826  0.20003642  0.08144559  1
  H  H50  1  0.29241519  0.02998278  0.16917560  1
  N  N51  1  0.34811711  0.05109299  0.23479590  1
  N  N52  1  0.29011706  0.46094983  0.04915015  1
  C  C53  1  0.20549088  0.47715921  0.20767165  1
  N  N54  1  0.04316942  0.04721950  0.12566104  1
  H  H55  1  0.40592880  0.29811580  0.21005915  1
  C  C56  1  0.27195005  0.15059677  0.04192277  1
  H  H57  1  0.18979726  0.09690686  0.02134382  1
  O  O58  1  0.38821702  0.21354022  0.21988057  1
  C  C59  1  0.37517082  0.06559528  0.02333727  1
  O  O60  1  0.12216535  0.16410841  0.22550295  1
  C  C61  1  0.21967594  0.13212212  0.00834152  1
  H  H62  1  0.05664870  0.32350283  0.22062463  1
  O  O63  1  0.11425281  0.49617278  0.10711118  1
  H  H64  1  0.48942077  0.18349185  0.21779202  1
  H  H65  1  0.00318365  0.44198810  0.07740257  1
  N  N66  1  0.10976649  0.47523421  0.24262573  1
  C  C67  1  0.31313433  0.19322643  0.01720733  1
  H  H68  1  0.12503961  0.37025432  0.00359604  1
  C  C69  1  0.16081997  0.33510265  0.44997829  1
  N  N70  1  0.49548017  0.06685545  0.34010600  1
  H  H71  1  0.03789171  0.13764801  0.33413251  1
  N  N72  1  0.20153442  0.31935081  0.41148604  1
  C  C73  1  0.19966421  0.32507833  0.35253896  1
  C  C74  1  0.39428432  0.15317967  0.43167028  1
  C  C75  1  0.24707082  0.29675414  0.32211361  1
  C  C76  1  0.29391940  0.41604932  0.29602582  1
  C  C77  1  0.15233189  0.35247436  0.32037814  1
  C  C78  1  0.01987243  0.44452690  0.29082474  1
  H  H79  1  0.11393187  0.37315144  0.34233673  1
  C  C80  1  0.40080512  0.38739438  0.34154221  1
  C  C81  1  0.18178815  0.48739237  0.40946228  1
  H  H82  1  0.16458983  0.03578047  0.28264356  1
  H  H83  1  0.07659427  0.34945509  0.41957366  1
  O  O84  1  0.31932578  0.04223164  0.45302762  1
  C  C85  1  0.02760709  0.38633409  0.26807725  1
  H  H86  1  0.48588358  0.29076857  0.36861420  1
  H  H87  1  0.26960318  0.45123143  0.38024130  1
  N  N88  1  0.35308263  0.16113918  0.47584247  1
  C  C89  1  0.44904023  0.07769028  0.37091837  1
  H  H90  1  0.04225133  0.10972531  0.43915173  1
  H  H91  1  0.24741018  0.42617771  0.28007991  1
  C  C92  1  0.30345652  0.43219284  0.35208399  1
  C  C93  1  0.44054999  0.24994371  0.44284628  1
  O  O94  1  0.04305289  0.11174028  0.25099170  1
  H  H95  1  0.07785224  0.35133670  0.48791941  1
  N  N96  1  0.10304510  0.35639491  0.45273204  1
  C  C97  1  0.49241515  0.35090728  0.44580179  1
  C  C98  1  0.14815718  0.13209134  0.44902230  1
  H  H99  1  0.00509577  0.23523206  0.30123431  1
  H  H100  1  0.11548383  0.03586926  0.45825273  1
  C  C101  1  0.01485250  0.20416350  0.46292988  1
  C  C102  1  0.21147002  0.00124169  0.43373330  1
  C  C103  1  0.35722512  0.41409594  0.37811680  1
  C  C104  1  0.39502221  0.37736313  0.28381352  1
  N  N105  1  0.15874133  0.12834630  0.39339314  1
  C  C106  1  0.00761455  0.22768620  0.34546631  1
  H  H107  1  0.28126457  0.27479842  0.34630299  1
  H  H108  1  0.33160958  0.20143113  0.48111533  1
  C  C109  1  0.35623035  0.03810623  0.41658025  1
  H  H110  1  0.36428102  0.41924011  0.42317152  1
  C  C111  1  0.15953511  0.19087911  0.47709558  1
  H  H112  1  0.16201107  0.23181004  0.44992198  1
  O  O113  1  0.26827124  0.29969035  0.44314159  1
  H  H114  1  0.15170812  0.44641600  0.40710091  1
  C  C115  1  0.12994303  0.07826492  0.48196360  1
  C  C116  1  0.33804149  0.39099442  0.25988379  1
  H  H117  1  0.22292578  0.03551430  0.46779112  1
  C  C118  1  0.02834283  0.15536475  0.42491790  1
  C  C119  1  0.40411194  0.09251293  0.40431148  1
  C  C120  1  0.47559641  0.29823731  0.41461538  1
  N  N121  1  0.15904500  0.07842625  0.30617452  1
  C  C122  1  0.02747654  0.17145457  0.36768305  1
  H  H123  1  0.15653157  0.11917919  0.27908161  1
  C  C124  1  0.05771934  0.49446936  0.26016775  1
  N  N125  1  0.02802050  0.33353393  0.25360586  1
  N  N126  1  0.42737765  0.19654117  0.41404704  1
  C  C127  1  0.16531257  0.07483512  0.36426520  1
  H  H128  1  0.44296360  0.36988214  0.36058108  1
  H  H129  1  0.32463879  0.12319194  0.47499205  1
  C  C130  1  0.25499972  0.30567473  0.49501706  1
  C  C131  1  0.21524656  0.49819036  0.45836722  1
  C  C132  1  0.18275192  0.01358440  0.38186457  1
  H  H133  1  0.43393899  0.36301710  0.25889811  1
  O  O134  1  0.38191637  0.11873342  0.26024153  1
  H  H135  1  0.01190398  0.00207490  0.34003405  1
  H  H136  1  0.20680580  0.46503962  0.49262130  1
  Cu  Cu137  1  0.48138127  0.05619371  0.25443241  1
  C  C138  1  0.15755154  0.35470404  0.26098592  1
  C  C139  1  0.24909161  0.29176080  0.26273448  1
  H  H140  1  0.12545533  0.36637103  0.56078150  1
  C  C141  1  0.21203440  0.03260516  0.68884155  1
  C  C142  1  0.42510985  0.25680175  0.50152835  1
  C  C143  1  0.30834866  0.43098772  0.54844234  1
  H  H144  1  0.16186398  0.13629364  0.61488416  1
  H  H145  1  0.48839727  0.02874810  0.59107276  1
  H  H146  1  0.40481345  0.21661657  0.52062968  1
  O  O147  1  0.00730378  0.37400501  0.63219757  1
  C  C148  1  0.16941498  0.34142818  0.55519080  1
  C  C149  1  0.24162987  0.08368625  0.65967697  1
  H  H150  1  0.48324734  0.22921667  0.59485455  1
  H  H151  1  0.40118668  0.40392505  0.52864920  1
  H  H152  1  0.35182229  0.09496401  0.71329053  1
  N  N153  1  0.28884441  0.21870106  0.61934378  1
  H  H154  1  0.29545638  0.42823967  0.50270588  1
  C  C155  1  0.36853737  0.41768265  0.56055447  1
  C  C156  1  0.13360977  0.08405494  0.54070554  1
  H  H157  1  0.17726194  0.34319932  0.63410150  1
  C  C158  1  0.45474510  0.20274733  0.62194812  1
  N  N159  1  0.10497528  0.35756082  0.69459406  1
  H  H160  1  0.44401319  0.13166580  0.55585659  1
  O  O161  1  0.29496835  0.29800760  0.53371784  1
  C  C162  1  0.28909522  0.45771679  0.64990262  1
  C  C163  1  0.38015184  0.12431785  0.68766192  1
  C  C164  1  0.40276923  0.18181040  0.70845270  1
  C  C165  1  0.15516728  0.13983038  0.56854954  1
  N  N166  1  0.19920742  0.33081975  0.60047780  1
  C  C167  1  0.24237026  0.23412286  0.71842689  1
  H  H168  1  0.27154290  0.20106373  0.58239831  1
  C  C169  1  0.44357459  0.30908937  0.53222952  1
  H  H170  1  0.07826758  0.44564803  0.58363454  1
  C  C171  1  0.12779982  0.47130666  0.67451642  1
  H  H172  1  0.43692714  0.42132020  0.62365219  1
  H  H173  1  0.37576501  0.06716179  0.60983777  1
  C  C174  1  0.11545848  0.41116602  0.68508457  1
  H  H175  1  0.19785332  0.03731179  0.73259535  1
  N  N176  1  0.37911656  0.45230374  0.71385955  1
  N  N177  1  0.24461046  0.14201458  0.68712174  1
  N  N178  1  0.05625314  0.23655867  0.61487230  1
  H  H179  1  0.46038677  0.26178606  0.69588132  1
  H  H180  1  0.33159963  0.20262482  0.61783214  1
  H  H181  1  0.12204350  0.04088883  0.56457675  1
  C  C182  1  0.35281350  0.44721581  0.66166543  1
  C  C183  1  0.39667903  0.10737937  0.63319740  1
  C  C184  1  0.43402900  0.14417637  0.59967375  1
  H  H185  1  0.13012244  0.33651467  0.72539729  1
  H  H186  1  0.37171484  0.31025789  0.71192685  1
  H  H187  1  0.07640974  0.19379310  0.60962075  1
  Cu  Cu188  1  0.02828497  0.30496759  0.67685005  1
  C  C189  1  0.25977656  0.19828695  0.67099235  1
  C  C190  1  0.38774635  0.42732686  0.61587859  1
  O  O191  1  0.28109886  0.33193864  0.68367178  1
  C  C192  1  0.27036972  0.44669368  0.59504269  1
  H  H193  1  0.16565494  0.24120262  0.55344251  1
  C  C194  1  0.03581583  0.26028916  0.57437740  1
  C  C195  1  0.26695846  0.07043954  0.60613605  1
  H  H196  1  0.29076038  0.10784620  0.58305417  1
  C  C197  1  0.44103052  0.22269473  0.67527069  1
  Cu  Cu198  1  0.28811421  0.31558354  0.60688731  1
  C  C199  1  0.24863516  0.30245003  0.72372287  1
  C  C200  1  0.25507778  0.01332977  0.57762400  1
  C  C201  1  0.00619758  0.30761108  0.55144526  1
  H  H202  1  0.43359403  0.31767316  0.57720721  1
  C  C203  1  0.48068198  0.35342762  0.50616261  1
  N  N204  1  0.10584236  0.48421172  0.57162408  1
  H  H205  1  0.41418002  0.00754500  0.66457904  1
  H  H206  1  0.25882946  0.47108650  0.68434681  1
  H  H207  1  0.27327819  0.00511573  0.53401235  1
  H  H208  1  0.26083601  0.40800696  0.73651518  1
  H  H209  1  0.22568152  0.46130670  0.58225782  1
  O  O210  1  0.05167249  0.24673273  0.72871729  1
  C  C211  1  0.15950037  0.19627775  0.53609023  1
  N  N212  1  0.02595215  0.05221384  0.64597871  1
  H  H213  1  0.05320366  0.01622157  0.66027970  1
  C  C214  1  0.00467623  0.05479734  0.59110960  1
  H  H215  1  0.02249205  0.08282473  0.67874138  1
  H  H216  1  0.01823007  0.19640842  0.51021706  1
  H  H217  1  0.49373184  0.39634258  0.53139692  1
  N  N218  1  0.39578138  0.30807821  0.74809469  1
  C  C219  1  0.19448779  0.32588179  0.50194858  1
  O  O220  1  0.22686548  0.32716294  0.76394115  1
  C  C221  1  0.05274307  0.11148685  0.94767548  1
  H  H222  1  0.17446345  0.14119909  0.92802908  1
  O  O223  1  0.06488471  0.08885857  0.90250086  1
  H  H224  1  0.38200362  0.34575629  0.76917757  1
  H  H225  1  0.46682934  0.49143751  0.78418470  1
  Cu  Cu226  1  0.49051443  0.38150796  0.96641137  1
  C  C227  1  0.07367967  0.22611638  0.92256808  1
  H  H228  1  0.29724619  0.07354217  0.96812927  1
  H  H229  1  0.06987843  0.16186835  0.85686196  1
  N  N230  1  0.45374001  0.32762293  0.91002413  1
  O  O231  1  0.42832581  0.16466212  0.87780968  1
  C  C232  1  0.14904805  0.43267020  0.93618302  1
  N  N233  1  0.08008459  0.28092701  0.94776352  1
  N  N234  1  0.08572394  0.20583514  0.86721890  1
  H  H235  1  0.20363164  0.07099954  0.86427702  1
  C  C236  1  0.10428989  0.33163040  0.92147873  1
  O  O237  1  0.01881833  0.02124600  0.77734525  1
  H  H238  1  0.39007895  0.10464540  0.82616850  1
  N  N239  1  0.39524966  0.19560078  0.76457423  1
  N  N240  1  0.46329940  0.47368108  0.99272106  1
  H  H241  1  0.41919603  0.37374754  0.84592123  1
  C  C242  1  0.36318150  0.00796469  0.93540864  1
  O  O243  1  0.45509890  0.25086689  0.92629999  1
  C  C244  1  0.15848584  0.44062130  0.87833416  1
  C  C245  1  0.34335613  0.45343004  0.75815616  1
  H  H246  1  0.08091713  0.23238410  0.83241590  1
  C  C247  1  0.10554143  0.34131719  0.85925253  1
  H  H248  1  0.13988190  0.40481202  0.79368361  1
  C  C249  1  0.21301700  0.15627389  0.95461664  1
  C  C250  1  0.12678194  0.37716864  0.95893494  1
  N  N251  1  0.44910952  0.48297290  0.87275661  1
  H  H252  1  0.19577854  0.22392195  0.80777821  1
  C  C253  1  0.29229154  0.09092765  0.84469558  1
  N  N254  1  0.13147559  0.04404389  0.80078049  1
  C  C255  1  0.39743546  0.25416673  0.78308681  1
  C  C256  1  0.42901609  0.32669195  0.86181918  1
  C  C257  1  0.13097704  0.39631159  0.83937362  1
  H  H258  1  0.16543384  0.46959385  0.96367486  1
  C  C259  1  0.37355712  0.46844174  0.81033234  1
  H  H260  1  0.08403750  0.30758016  0.82837065  1
  C  C261  1  0.34741003  0.07405229  0.81950643  1
  O  O262  1  0.29194678  0.45265660  0.87439456  1
  C  C263  1  0.43205091  0.21975238  0.88369377  1
  H  H264  1  0.16214517  0.07908715  0.79261732  1
  H  H265  1  0.23953587  0.22697850  0.89249735  1
  C  C266  1  0.24353425  0.05169141  0.84592379  1
  C  C267  1  0.05241923  0.17893887  0.96107904  1
  C  C268  1  0.25189755  0.20341073  0.93329482  1
  C  C269  1  0.41624740  0.26575385  0.83899902  1
  O  O270  1  0.01724458  0.15267003  0.76227031  1
  O  O271  1  0.04080506  0.08175394  0.99509527  1
  O  O272  1  0.38327452  0.46714593  0.90699315  1
  H  H273  1  0.17802674  0.48528486  0.86109448  1
  H  H274  1  0.28623695  0.13981063  0.86518311  1
  C  C275  1  0.35277531  0.01461900  0.79675730  1
  C  C276  1  0.30339153  0.22092376  0.96357880  1
  H  H277  1  0.26472051  0.43986907  0.80221555  1
  H  H278  1  0.33508032  0.25727814  0.94842019  1
  C  C279  1  0.33909409  0.04883581  0.97441073  1
  H  H280  1  0.09012625  0.06400714  0.79050247  1
  C  C281  1  0.43500525  0.48317043  0.81878396  1
  C  C282  1  0.21376305  0.20420181  0.76694338  1
  C  C283  1  0.34475597  0.45791119  0.86644335  1
  N  N284  1  0.20768157  0.14719721  0.75282136  1
  C  C285  1  0.01199565  0.21254327  0.75530196  1
  N  N286  1  0.28264895  0.44031319  0.76211509  1
  C  C287  1  0.48517181  0.51098579  0.02039033  1
  H  H288  1  0.39840121  0.71061264  0.23179812  1
  H  H289  1  0.09159654  0.63560572  0.16206781  1
  C  C290  1  0.25324812  0.57548271  0.20089834  1
  C  C291  1  0.49736406  0.56731960  0.10584874  1
  H  H292  1  0.10426644  0.81202159  0.07415966  1
  H  H293  1  0.40624764  0.79621550  0.01760047  1
  H  H294  1  0.35801373  0.68840695  0.07844640  1
  H  H295  1  0.18701633  0.60155173  0.11572484  1
  O  O296  1  0.05439356  0.87923427  0.14670973  1
  C  C297  1  0.11108028  0.97500166  0.13856790  1
  C  C298  1  0.12589468  0.76834886  0.08660882  1
  C  C299  1  0.49355059  0.73695874  0.01987036  1
  N  N300  1  0.21441654  0.95757102  0.10730484  1
  C  C301  1  0.28365043  0.78856449  0.15802499  1
  C  C302  1  0.18032334  0.75206767  0.06213224  1
  H  H303  1  0.38967309  0.92806654  0.12806789  1
  C  C304  1  0.40044208  0.71227424  0.07302771  1
  N  N305  1  0.48345660  0.83473048  0.14651976  1
  O  O306  1  0.37030822  0.55018898  0.01220329  1
  H  H307  1  0.09313879  0.97321154  0.06146565  1
  N  N308  1  0.24987238  0.66603806  0.04147778  1
  C  C309  1  0.32728864  0.87494502  0.20519456  1
  H  H310  1  0.39055367  0.92852920  0.05633734  1
  C  C311  1  0.43057043  0.63322921  0.18464332  1
  H  H312  1  0.20888710  0.78550891  0.03815908  1
  O  O313  1  0.29433719  0.59405915  0.05629555  1
  N  N314  1  0.37041704  0.91110243  0.09287356  1
  C  C315  1  0.17283792  0.95183426  0.14706606  1
  C  C316  1  0.15668192  0.51046524  0.23224041  1
  C  C317  1  0.16973963  0.64882037  0.10946438  1
  H  H318  1  0.25991970  0.75832166  0.12687468  1
  H  H319  1  0.15054539  0.92308421  0.22569213  1
  C  C320  1  0.47196662  0.79254773  0.10655959  1
  N  N321  1  0.44763164  0.54073878  0.12488301  1
  C  C322  1  0.32362070  0.86945675  0.09458914  1
  H  H323  1  0.22470028  0.90904538  0.21468205  1
  C  C324  1  0.13154577  0.97373405  0.03465332  1
  C  C325  1  0.39834089  0.52773133  0.21638798  1
  H  H326  1  0.29708751  0.59652266  0.19262981  1
  C  C327  1  0.41741773  0.75792953  0.11195706  1
  H  H328  1  0.10722253  0.65921606  0.03082111  1
  H  H329  1  0.43455682  0.88348626  0.23548720  1
  H  H330  1  0.38824963  0.76613003  0.14710920  1
  N  N331  1  0.18251911  0.91722971  0.19650931  1
  C  C332  1  0.42537277  0.56695821  0.17381000  1
  H  H333  1  0.04957962  0.74209988  0.13923515  1
  C  C334  1  0.43893464  0.70070797  0.02792926  1
  C  C335  1  0.30969024  0.85106430  0.15171159  1
  N  N336  1  0.29619790  0.83624755  0.05394146  1
  H  H337  1  0.45681176  0.66083064  0.15291844  1
  H  H338  1  0.05627054  0.58613577  0.23793631  1
  C  C339  1  0.02304003  0.59509971  0.08339535  1
  O  O340  1  0.34639825  0.93095263  0.21195796  1
  N  N341  1  0.28275764  0.77489480  0.21147409  1
  C  C342  1  0.46794624  0.92187156  0.23129710  1
  C  C343  1  0.11731118  0.66847161  0.13618247  1
  C  C344  1  0.19179969  0.97601058  0.05669777  1
  C  C345  1  0.20141342  0.69033348  0.07185802  1
  C  C346  1  0.09457025  0.72883582  0.12247612  1
  C  C347  1  0.05732205  0.56446420  0.04050750  1
  C  C348  1  0.05940632  0.93647516  0.14190852  1
  O  O349  1  0.16885484  0.54076009  0.03812223  1
  C  C350  1  0.11937233  0.53281025  0.07002085  1
  C  C351  1  0.40017084  0.65988951  0.23005917  1
  C  C352  1  0.31947407  0.84519120  0.00043421  1
  C  C353  1  0.32931604  0.59163503  0.01518239  1
  C  C354  1  0.25428881  0.51035599  0.19106298  1
  C  C355  1  0.02395421  0.50974338  0.01113530  1
  C  C356  1  0.20856821  0.60810899  0.22667328  1
  H  H357  1  0.28415353  0.98743973  0.04006509  1
  H  H358  1  0.21328759  0.65997056  0.23120089  1
  O  O359  1  0.01320289  0.97265053  0.12837643  1
  H  H360  1  0.15518774  0.58221949  0.01651178  1
  O  O361  1  0.31289844  0.83523168  0.24591294  1
  C  C362  1  0.15959569  0.57589763  0.24590881  1
  C  C363  1  0.24102544  0.98400772  0.01970680  1
  H  H364  1  0.02147021  0.71564529  0.38753653  1
  C  C365  1  0.35023704  0.79843683  0.41094391  1
  N  N366  1  0.22837975  0.94366701  0.43777497  1
  O  O367  1  0.20566601  0.91201606  0.37582879  1
  C  C368  1  0.18566057  0.95855095  0.34443916  1
  H  H369  1  0.34081199  0.52375554  0.29188681  1
  O  O370  1  0.17093270  0.95629865  0.29540306  1
  N  N371  1  0.03770425  0.55070803  0.25686956  1
  C  C372  1  0.47017522  0.57005293  0.33025588  1
  H  H373  1  0.16572672  0.84228569  0.47725683  1
  O  O374  1  0.00455040  0.96868827  0.45866984  1
  C  C375  1  0.47695597  0.83404941  0.43254436  1
  H  H376  1  0.15989691  0.64592709  0.45005563  1
  N  N377  1  0.01259553  0.63006293  0.39389559  1
  C  C378  1  0.05365722  0.85152441  0.38017118  1
  C  C379  1  0.06371243  0.86759544  0.32396666  1
  H  H380  1  0.11366200  0.82501359  0.25275209  1
  C  C381  1  0.36695270  0.55568509  0.25958725  1
  H  H382  1  0.34328751  0.64520587  0.29817751  1
  C  C383  1  0.35615105  0.71309721  0.48020417  1
  N  N384  1  0.05307938  0.79507130  0.46506000  1
  H  H385  1  0.45638417  0.79346641  0.45197503  1
  H  H386  1  0.44625776  0.91279846  0.39163688  1
  N  N387  1  0.36220014  0.84946252  0.39995579  1
  C  C388  1  0.11695517  0.76840698  0.32890646  1
  C  C389  1  0.11093796  0.74849933  0.38285908  1
  C  C390  1  0.44196405  0.61344932  0.36749477  1
  C  C391  1  0.17466299  0.64355628  0.49332094  1
  H  H392  1  0.47128619  0.97308234  0.49678597  1
  C  C393  1  0.10019994  0.81981754  0.29693638  1
  H  H394  1  0.30481830  0.75776393  0.31944145  1
  C  C395  1  0.19599364  0.52195048  0.36072536  1
  H  H396  1  0.17769622  0.51161123  0.31839425  1
  H  H397  1  0.21631979  0.73493626  0.47355799  1
  N  N398  1  0.30000494  0.64099311  0.41716609  1
  H  H399  1  0.02161322  0.87921339  0.40319432  1
  H  H400  1  0.45618299  0.51937896  0.33352708  1
  H  H401  1  0.13012650  0.70787238  0.40228176  1
  C  C402  1  0.33549885  0.73731420  0.42401550  1
  C  C403  1  0.30488559  0.69322239  0.38685851  1
  N  N404  1  0.28975897  0.71515246  0.33556443  1
  H  H405  1  0.26469620  0.69640803  0.30377280  1
  C  C406  1  0.36803874  0.62178753  0.26653548  1
  H  H407  1  0.39161382  0.89398678  0.48669868  1
  Cu  Cu408  1  0.26611950  0.89264311  0.48917249  1
  C  C409  1  0.27165096  0.58235050  0.41474037  1
  O  O410  1  0.33921370  0.65381938  0.48124651  1
  H  H411  1  0.41119360  0.59744138  0.40295364  1
  H  H412  1  0.25811099  0.59376762  0.32527899  1
  C  C413  1  0.07168644  0.79580514  0.41051110  1
  N  N414  1  0.43963294  0.86759054  0.40436285  1
  H  H415  1  0.45328213  0.65894524  0.46264314  1
  C  C416  1  0.24299689  0.56649387  0.36254497  1
  C  C417  1  0.03179674  0.68135631  0.48224716  1
  C  C418  1  0.25781433  0.54570444  0.46378390  1
  C  C419  1  0.02335187  0.67841850  0.42075447  1
  H  H420  1  0.04448637  0.91004574  0.30356144  1
  Cu  Cu421  1  0.36571053  0.97950652  0.28175399  1
  N  N422  1  0.44685360  0.97032814  0.25541115  1
  O  O423  1  0.36263531  0.99062907  0.38635961  1
  C  C424  1  0.44919061  0.67945928  0.35838394  1
  H  H425  1  0.12574039  0.59785072  0.27127567  1
  C  C426  1  0.49322709  0.69669062  0.32079111  1
  H  H427  1  0.42043089  0.71214184  0.38042417  1
  H  H428  1  0.00737860  0.63126709  0.34976399  1
  C  C429  1  0.46747343  0.61465957  0.48211742  1
  C  C430  1  0.04666939  0.74350386  0.49391493  1
  C  C431  1  0.19248803  0.77367410  0.64526513  1
  C  C432  1  0.22276406  0.80917346  0.59955349  1
  O  O433  1  0.21457112  0.75902562  0.68981425  1
  C  C434  1  0.28156242  0.83533264  0.60113646  1
  H  H435  1  0.35149674  0.82420055  0.66175061  1
  H  H436  1  0.08149730  0.71203361  0.70753217  1
  N  N437  1  0.30710738  0.81968602  0.65167801  1
  N  N438  1  0.30818024  0.86568391  0.55784269  1
  H  H439  1  0.28463989  0.79240920  0.68184739  1
  C  C440  1  0.18423514  0.59962475  0.58710287  1
  H  H441  1  0.23482844  0.65782744  0.64409179  1
  N  N442  1  0.16853841  0.55510941  0.62353523  1
  O  O443  1  0.13653439  0.75710515  0.63475103  1
  H  H444  1  0.01227414  0.75603287  0.57262202  1
  C  C445  1  0.02704226  0.62790393  0.52014710  1
  H  H446  1  0.33858238  0.92689709  0.65891095  1
  C  C447  1  0.44486682  0.95977928  0.53295636  1
  H  H448  1  0.47960601  0.88636344  0.63243540  1
  C  C449  1  0.03526901  0.64145369  0.71161848  1
  C  C450  1  0.46866896  0.54586880  0.56577356  1
  C  C451  1  0.36234654  0.89743091  0.57163242  1
  C  C452  1  0.21957123  0.65320654  0.60115429  1
  N  N453  1  0.08567033  0.90481713  0.58615589  1
  C  C454  1  0.02218474  0.99829744  0.55752397  1
  H  H455  1  0.27180933  0.73462884  0.57270158  1
  Cu  Cu456  1  0.09563753  0.68974882  0.60135589  1
  C  C457  1  0.15976849  0.59506045  0.52886664  1
  C  C458  1  0.23787599  0.69801823  0.56141572  1
  N  N459  1  0.10543350  0.82889864  0.73692834  1
  H  H460  1  0.20388253  0.92636816  0.58427863  1
  O  O461  1  0.01931154  0.57344946  0.50014611  1
  O  O462  1  0.19341386  0.55659188  0.69052318  1
  N  N463  1  0.05208014  0.75902764  0.55593357  1
  C  C464  1  0.44498638  0.59734062  0.53665733  1
  C  C465  1  0.45284891  0.99312661  0.58396740  1
  O  O466  1  0.46800585  0.61053203  0.70295368  1
  H  H467  1  0.08526088  0.50782657  0.53955969  1
  H  H468  1  0.14452167  0.80351523  0.74702294  1
  O  O469  1  0.03511595  0.63589096  0.57241594  1
  H  H470  1  0.17419493  0.93963705  0.68872721  1
  N  N471  1  0.07009984  0.67159130  0.68439205  1
  N  N472  1  0.20047616  0.84359253  0.50754515  1
  H  H473  1  0.10506878  0.90857548  0.62472201  1
  C  C474  1  0.36992498  0.93124969  0.62414869  1
  H  H475  1  0.14310651  0.78651107  0.54852877  1
  C  C476  1  0.05723650  0.94980504  0.57394608  1
  C  C477  1  0.41415736  0.97654469  0.62938115  1
  H  H478  1  0.40969694  0.62873651  0.55607699  1
  C  C479  1  0.18546457  0.81350171  0.55195132  1
  C  C480  1  0.16017544  0.51182862  0.71851432  1
  C  C481  1  0.21577934  0.96944378  0.60404474  1
  H  H482  1  0.03059666  0.55186492  0.65440173  1
  H  H483  1  0.27786209  0.55418019  0.50491780  1
  C  C484  1  0.19879935  0.97491266  0.66375286  1
  C  C485  1  0.46130097  0.66493738  0.71353649  1
  H  H486  1  0.06805185  0.79809924  0.57701550  1
  H  H487  1  0.13019830  0.55660156  0.51514585  1
  H  H488  1  0.44897037  0.53241478  0.60681045  1
  O  O489  1  0.00382867  0.94249193  0.72562330  1
  H  H490  1  0.48738674  0.74605492  0.70980104  1
  C  C491  1  0.40876190  0.76232240  0.74022012  1
  O  O492  1  0.45415150  0.87576273  0.71889399  1
  C  C493  1  0.13471851  0.50557012  0.62023781  1
  N  N494  1  0.40331133  0.81573218  0.74525109  1
  H  H495  1  0.39896952  0.58650388  0.73812693  1
  C  C496  1  0.40931492  0.69692067  0.73786345  1
  O  O497  1  0.38373218  0.73740067  0.51784067  1
  C  C498  1  0.39838660  0.91643518  0.52687193  1
  C  C499  1  0.21110132  0.69722298  0.50747917  1
  H  H500  1  0.31125640  0.58393556  0.86876875  1
  H  H501  1  0.07169831  0.93371270  0.87364887  1
  H  H502  1  0.11668471  0.69009637  0.80921124  1
  C  C503  1  0.07691457  0.88468326  0.89251977  1
  C  C504  1  0.41983815  0.98113898  0.94280043  1
  C  C505  1  0.37794387  0.81998713  0.98251466  1
  C  C506  1  0.21727935  0.59721404  0.88366946  1
  N  N507  1  0.31661383  0.69421330  0.78914806  1
  H  H508  1  0.15670416  0.86884451  0.84511330  1
  C  C509  1  0.35674522  0.65552471  0.93102719  1
  H  H510  1  0.37787292  0.68155121  0.86040302  1
  C  C511  1  0.17370422  0.98047714  0.94001340  1
  C  C512  1  0.30496148  0.97329179  0.79503405  1
  C  C513  1  0.26934181  0.66234788  0.81340644  1
  C  C514  1  0.26981360  0.61261409  0.85627494  1
  H  H515  1  0.43826670  0.94489411  0.91295787  1
  C  C516  1  0.10075071  0.94219666  0.76783789  1
  C  C517  1  0.29961014  0.87068007  0.90060722  1
  C  C518  1  0.45639271  0.99775707  0.98925147  1
  C  C519  1  0.12574808  0.97382324  0.97646436  1
  H  H520  1  0.12223991  0.61930356  0.89649417  1
  O  O521  1  0.16136212  0.50683899  0.76780945  1
  C  C522  1  0.32102015  0.64609953  0.97830949  1
  H  H523  1  0.22901660  0.76845928  0.95811117  1
  C  C524  1  0.04320255  0.80463943  0.96463695  1
  C  C525  1  0.35764981  0.84859947  0.88468148  1
  N  N526  1  0.19876604  0.95387663  0.80273361  1
  C  C527  1  0.03740178  0.86672454  0.93796325  1
  H  H528  1  0.22000232  0.57123020  0.92390767  1
  H  H529  1  0.36990412  0.84237414  0.83915157  1
  C  C530  1  0.28077006  0.87109862  0.95640587  1
  C  C531  1  0.12519471  0.84801403  0.87563240  1
  C  C532  1  0.13090370  0.78480888  0.89902501  1
  H  H533  1  0.26491091  0.88750087  0.87242366  1
  H  H534  1  0.23315302  0.88522947  0.96151731  1
  C  C535  1  0.06975075  0.60579187  0.98278322  1
  C  C536  1  0.15993061  0.66615380  0.82167650  1
  C  C537  1  0.16208538  0.62538796  0.86881007  1
  C  C538  1  0.02168951  0.52218925  0.95215453  1
  H  H539  1  0.01039996  0.78210756  0.98987963  1
  C  C540  1  0.21294411  0.68352304  0.79538116  1
  C  C541  1  0.03744557  0.96848167  0.75648752  1
  N  N542  1  0.39282616  0.65713420  0.89577365  1
  C  C543  1  0.39519789  0.82174121  0.92599973  1
  H  H544  1  0.43972380  0.80334630  0.91435269  1
  H  H545  1  0.16930620  0.75112629  0.89046071  1
  H  H546  1  0.29165326  0.74794117  0.93170112  1
  N  N547  1  0.25514401  0.72912434  0.95072453  1
  N  N548  1  0.04915831  0.57785897  0.93782680  1
  H  H549  1  0.10930667  0.69899181  0.95739613  1
  C  C550  1  0.27052360  0.68465604  0.99112092  1
  C  C551  1  0.08930724  0.77709510  0.94053366  1
  H  H552  1  0.39650068  0.99883467  0.77667246  1
  N  N553  1  0.09683790  0.66135752  0.98752739  1
  H  H554  1  0.31113356  0.92607626  0.77874117  1
  H  H555  1  0.26873558  0.99675238  0.93148653  1
  C  C556  1  0.14663566  0.98000338  0.79501794  1
  C  C557  1  0.24794772  0.99252615  0.81438690  1
  C  C558  1  0.23269449  0.98918719  0.96156533  1
  H  H559  1  0.33781304  0.99641959  0.89652033  1
  H  H560  1  0.08010069  0.97092987  0.95927461  1
  H  H561  1  0.16207512  0.98479348  0.89418215  1
  H  H562  1  0.42667247  0.66105687  0.99813054  1
  C  C563  1  0.10664509  0.88094690  0.75265123  1
  N  N564  1  0.36096707  0.59635821  0.76231780  1
  C  C565  1  0.35964506  0.66269207  0.76362329  1
  H  H566  1  0.32644136  0.56780204  0.77513930  1
  H  H567  1  0.21359090  0.71646394  0.75990806  1
  H  H568  1  0.76383047  0.31298890  0.04147233  1
  C  C569  1  0.59073941  0.28300586  0.14053066  1
  N  N570  1  0.62351866  0.45107731  0.10302832  1
  C  C571  1  0.59044952  0.40599440  0.12317913  1
  C  C572  1  0.58851356  0.34076154  0.10091926  1
  H  H573  1  0.77394354  0.41389136  0.13990515  1
  C  C574  1  0.93147117  0.46861303  0.19000491  1
  H  H575  1  0.93585706  0.22213713  0.15505446  1
  N  N576  1  0.94034551  0.14454996  0.19794249  1
  H  H577  1  0.95853503  0.36568623  0.00918649  1
  C  C578  1  0.55834130  0.00257932  0.00426535  1
  O  O579  1  0.89155292  0.22072973  0.06206266  1
  C  C580  1  0.81156162  0.30356385  0.13481549  1
  O  O581  1  0.83479005  0.14073251  0.07060516  1
  N  N582  1  0.55403919  0.01940576  0.06221455  1
  Cu  Cu583  1  0.97913794  0.06652169  0.22567586  1
  O  O584  1  0.58779905  0.22933749  0.12542137  1
  H  H585  1  0.96741921  0.38631928  0.15406135  1
  H  H586  1  0.59336682  0.17732438  0.05094531  1
  C  C587  1  0.99831981  0.45309017  0.03157028  1
  H  H588  1  0.68709099  0.34306608  0.10654425  1
  C  C589  1  0.57190685  0.33064378  0.04837632  1
  N  N590  1  0.72016542  0.25044941  0.15814418  1
  Cu  Cu591  1  0.98954269  0.11157325  0.10914473  1
  C  C592  1  0.86910007  0.39034828  0.14653621  1
  C  C593  1  0.84299265  0.20244833  0.07553265  1
  N  N594  1  0.89434562  0.04086894  0.03272333  1
  C  C595  1  0.74138469  0.35927838  0.03228900  1
  O  O596  1  0.90892018  0.02818006  0.20108710  1
  N  N597  1  0.87045895  0.13534877  0.17740164  1
  H  H598  1  0.53018057  0.46952566  0.16955541  1
  H  H599  1  0.51067690  0.40000743  0.15621958  1
  C  C600  1  0.82483076  0.48424139  0.18554394  1
  H  H601  1  0.97750370  0.49401195  0.19590767  1
  Cu  Cu602  1  0.57311872  0.37135986  0.23906888  1
  C  C603  1  0.67052879  0.43627825  0.06648680  1
  C  C604  1  0.74514829  0.21349312  0.12299879  1
  Cu  Cu605  1  0.87734302  0.08072276  0.10899408  1
  C  C606  1  0.96676432  0.19366208  0.18115800  1
  H  H607  1  0.67643089  0.24884367  0.17294913  1
  C  C608  1  0.80007243  0.24074724  0.10809690  1
  C  C609  1  0.81778403  0.42787954  0.15487921  1
  N  N610  1  0.86390625  0.33016590  0.12894084  1
  H  H611  1  0.83979001  0.13049047  0.20784709  1
  N  N612  1  0.76202709  0.31819367  0.16413141  1
  C  C613  1  0.92569991  0.41272959  0.16285177  1
  C  C614  1  0.69719072  0.37548987  0.07103671  1
  N  N615  1  0.54798314  0.42556222  0.16588260  1
  H  H616  1  0.85907165  0.17759246  0.16369346  1
  H  H617  1  0.72567437  0.17004438  0.11014119  1
  O  O618  1  0.59092277  0.29773010  0.19612690  1
  N  N619  1  0.51665430  0.14915270  0.23665973  1
  H  H620  1  0.76346495  0.34654720  0.20103324  1
  O  O621  1  0.67229130  0.05116588  0.05682340  1
  C  C622  1  0.67386820  0.03890917  0.00476607  1
  H  H623  1  0.68719317  0.37869317  0.21600964  1
  C  C624  1  0.68724789  0.47885127  0.02217262  1
  H  H625  1  0.59667447  0.03110056  0.07992089  1
  H  H626  1  0.90848641  0.26019306  0.24987727  1
  H  H627  1  0.65161778  0.49511699  0.22294937  1
  H  H628  1  0.52957280  0.10018864  0.01252069  1
  C  C629  1  0.59549297  0.17346248  0.00516566  1
  O  O630  1  0.56287474  0.47463313  0.37230678  1
  C  C631  1  0.57877164  0.20305300  0.31617319  1
  C  C632  1  0.61735705  0.16121074  0.34976074  1
  H  H633  1  0.62537441  0.22458514  0.41365407  1
  C  C634  1  0.69916276  0.05627872  0.39584131  1
  C  C635  1  0.54639620  0.17751254  0.27398727  1
  C  C636  1  0.74620519  0.01420814  0.40014854  1
  O  O637  1  0.54244861  0.30752419  0.29321165  1
  H  H638  1  0.76900507  0.01127032  0.44025919  1
  Cu  Cu639  1  0.90667609  0.41725587  0.42924478  1
  C  C640  1  0.57188125  0.27196429  0.32805145  1
  C  C641  1  0.99427403  0.26353914  0.44344280  1
  C  C642  1  0.88581619  0.35534733  0.27616321  1
  C  C643  1  0.84022041  0.39698120  0.29210686  1
  C  C644  1  0.66852308  0.46242350  0.39539908  1
  C  C645  1  0.64942292  0.44078150  0.33924542  1
  C  C646  1  0.78268550  0.37014424  0.29275022  1
  H  H647  1  0.80814279  0.21343292  0.27430473  1
  H  H648  1  0.52755819  0.06296063  0.42503629  1
  N  N649  1  0.98868446  0.01203138  0.30440744  1
  H  H650  1  0.72690926  0.28567440  0.31104200  1
  C  C651  1  0.53134454  0.15557640  0.46635530  1
  C  C652  1  0.76994375  0.30434702  0.29429710  1
  C  C653  1  0.71463638  0.33976531  0.47488296  1
  H  H654  1  0.51298730  0.38994153  0.42609886  1
  O  O655  1  0.55877793  0.43843039  0.28222349  1
  N  N656  1  0.62104861  0.48186164  0.42074891  1
  C  C657  1  0.81144954  0.21238796  0.38542076  1
  C  C658  1  0.86122148  0.10412750  0.32933815  1
  H  H659  1  0.68363405  0.07904467  0.43634408  1
  C  C660  1  0.66518820  0.06023773  0.34374282  1
  H  H661  1  0.76671414  0.08586741  0.30622947  1
  C  C662  1  0.87291448  0.19464236  0.39065256  1
  O  O663  1  0.95874176  0.41359299  0.36685708  1
  C  C664  1  0.77644088  0.34536909  0.46723400  1
  C  C665  1  0.58526297  0.45148773  0.32789520  1
  H  H666  1  0.90856218  0.30703972  0.43787230  1
  N  N667  1  0.64307517  0.18254189  0.40053570  1
  H  H668  1  0.72755998  0.17833925  0.34990211  1
  O  O669  1  0.59174553  0.29594588  0.36948810  1
  N  N670  1  0.62160503  0.10367100  0.32999726  1
  C  C671  1  0.68592658  0.40910558  0.30222495  1
  C  C672  1  0.81546173  0.26434347  0.27714131  1
  C  C673  1  0.98612485  0.45680951  0.33994302  1
  N  N674  1  0.74240629  0.41152382  0.31559811  1
  N  N675  1  0.66510167  0.37220689  0.25263145  1
  N  N676  1  0.96062003  0.36591431  0.48416297  1
  H  H677  1  0.71236717  0.46166770  0.41842225  1
  C  C678  1  0.77447235  0.16925117  0.35455714  1
  N  N679  1  0.87290805  0.32634565  0.41697909  1
  H  H680  1  0.94253919  0.12419974  0.37412124  1
  H  H681  1  0.87958623  0.30765162  0.37730225  1
  N  N682  1  0.78532771  0.25439724  0.42159719  1
  C  C683  1  0.89631710  0.14293310  0.36461572  1
  C  C684  1  0.99030641  0.27335000  0.38468786  1
  H  H685  1  0.64663174  0.15682856  0.43690393  1
  C  C686  1  0.81349866  0.30540130  0.43586590  1
  H  H687  1  0.89966384  0.22571556  0.42125881  1
  C  C688  1  0.79910876  0.11719091  0.32815851  1
  H  H689  1  0.88279931  0.05877806  0.31424142  1
  H  H690  1  0.84844326  0.44837802  0.29947438  1
  H  H691  1  0.52268954  0.10352257  0.34295368  1
  C  C692  1  0.87340552  0.29149209  0.26697296  1
  H  H693  1  0.72694674  0.18312756  0.46942495  1
  H  H694  1  0.68444720  0.30391012  0.45928230  1
  H  H695  1  0.89002537  0.12858298  0.49020956  1
  H  H696  1  0.51991409  0.18476947  0.42959575  1
  O  O697  1  0.96625739  0.05582035  0.49493724  1
  H  H698  1  0.66447392  0.32312398  0.25426509  1
  C  C699  1  0.79980274  0.40555439  0.49044747  1
  C  C700  1  0.53898476  0.08922606  0.46328900  1
  H  H701  1  0.97303448  0.31922779  0.36558740  1
  H  H702  1  0.79048159  0.09269840  0.49611220  1
  C  C703  1  0.98956234  0.31327572  0.49136245  1
  O  O704  1  0.85176097  0.42213838  0.49229325  1
  H  H705  1  0.65050979  0.01297900  0.26325570  1
  H  H706  1  0.93125269  0.37127589  0.26621690  1
  C  C707  1  0.67799734  0.01429756  0.30098866  1
  C  C708  1  0.99836336  0.00058277  0.49893248  1
  N  N709  1  0.69550971  0.38958662  0.49929122  1
  O  O710  1  0.55448445  0.00834264  0.25071545  1
  C  C711  1  0.94626505  0.17092113  0.62631794  1
  C  C712  1  0.85736412  0.41143509  0.63332397  1
  C  C713  1  0.85926798  0.21124632  0.54216311  1
  H  H714  1  0.98417349  0.16249463  0.65088494  1
  C  C715  1  0.58712365  0.42266620  0.65264920  1
  H  H716  1  0.91781710  0.24776707  0.67779552  1
  C  C717  1  0.54848772  0.46401408  0.62167901  1
  C  C718  1  0.77140093  0.09731184  0.58755247  1
  C  C719  1  0.72912050  0.16927248  0.51510974  1
  C  C720  1  0.61398049  0.36361822  0.62361566  1
  C  C721  1  0.88136143  0.46866636  0.65384721  1
  N  N722  1  0.51572908  0.49498946  0.66460907  1
  H  H723  1  0.83010368  0.27405084  0.60731920  1
  C  C724  1  0.81939791  0.00055055  0.57451939  1
  H  H725  1  0.90769226  0.49609095  0.62427293  1
  C  C726  1  0.87926918  0.48744928  0.71209383  1
  O  O727  1  0.96783472  0.40447092  0.54828745  1
  H  H728  1  0.83123074  0.01587066  0.69857425  1
  H  H729  1  0.98285444  0.49814373  0.63858442  1
  C  C730  1  0.70224312  0.20282692  0.55959184  1
  C  C731  1  0.74036346  0.13149849  0.63082354  1
  H  H732  1  0.82376744  0.23146030  0.51284328  1
  C  C733  1  0.82675385  0.37370030  0.67204905  1
  C  C734  1  0.58353432  0.08272873  0.64510981  1
  H  H735  1  0.85667348  0.12277594  0.67668068  1
  H  H736  1  0.72347292  0.48148588  0.62436811  1
  N  N737  1  0.97137505  0.08817253  0.55875127  1
  C  C738  1  0.86374687  0.23599235  0.59746386  1
  C  C739  1  0.76351660  0.11852415  0.53071355  1
  C  C740  1  0.89475399  0.15750503  0.53038176  1
  C  C741  1  0.55488100  0.05685352  0.51223269  1
  C  C742  1  0.82160754  0.05511185  0.72806713  1
  O  O743  1  0.60941454  0.35889285  0.56736296  1
  O  O744  1  0.63538582  0.32204712  0.65101149  1
  H  H745  1  0.94308368  0.37264508  0.71821856  1
  C  C746  1  0.99456530  0.36802292  0.58072388  1
  H  H747  1  0.65019718  0.03790403  0.53782129  1
  C  C748  1  0.83877446  0.11839959  0.71846338  1
  H  H749  1  0.80162929  0.32960958  0.66198534  1
  C  C750  1  0.90825916  0.21896282  0.63891607  1
  C  C751  1  0.56670368  0.15697708  0.56303838  1
  N  N752  1  0.55061809  0.46580535  0.56630924  1
  H  H753  1  0.82624926  0.21870585  0.73351203  1
  H  H754  1  0.86504266  0.39749018  0.58770389  1
  Cu  Cu755  1  0.62007200  0.42738597  0.52277953  1
  H  H756  1  0.54449499  0.24229596  0.51430562  1
  C  C757  1  0.54843746  0.18954437  0.51401542  1
  C  C758  1  0.56973402  0.09065622  0.56356348  1
  H  H759  1  0.69052732  0.21480680  0.65533984  1
  C  C760  1  0.71004906  0.18675616  0.61804990  1
  C  C761  1  0.60500332  0.42783480  0.70869346  1
  H  H762  1  0.67188227  0.24412160  0.54849455  1
  C  C763  1  0.57718042  0.16415550  0.71166058  1
  N  N764  1  0.58652974  0.04514001  0.60809949  1
  H  H765  1  0.57945837  0.18329937  0.59960214  1
  C  C766  1  0.93742057  0.13523469  0.57309742  1
  C  C767  1  0.58875656  0.10073078  0.70172584  1
  N  N768  1  0.80773084  0.04892730  0.60808920  1
  O  O769  1  0.75473278  0.43418849  0.51304728  1
  C  C770  1  0.82528712  0.39341703  0.72947677  1
  H  H771  1  0.74094380  0.11346602  0.67402682  1
  C  C772  1  0.61432065  0.05202167  0.74283545  1
  N  N773  1  0.73674076  0.28094899  0.74613479  1
  H  H774  1  0.56069532  0.00740578  0.51437960  1
  H  H775  1  0.71686493  0.23629724  0.74173339  1
  H  H776  1  0.53096771  0.49733541  0.70390843  1
  N  N777  1  0.97333785  0.34306011  0.73730451  1
  N  N778  1  0.56692072  0.21658800  0.71517481  1
  C  C779  1  0.81685095  0.17024504  0.74920039  1
  N  N780  1  0.54566933  0.41257766  0.91589379  1
  N  N781  1  0.66567840  0.32999966  0.93451442  1
  H  H782  1  0.95499925  0.38703001  0.90203924  1
  O  O783  1  0.87428346  0.07697078  0.96556095  1
  O  O784  1  0.89260813  0.05424196  0.87374616  1
  C  C785  1  0.71867363  0.30511320  0.78697666  1
  H  H786  1  0.53774458  0.39873592  0.87632658  1
  H  H787  1  0.59637771  0.12980846  0.84223629  1
  C  C788  1  0.76844109  0.09240183  0.81057575  1
  C  C789  1  0.77780253  0.15591350  0.79533282  1
  H  H790  1  0.75384238  0.19535633  0.82080754  1
  C  C791  1  0.67133595  0.29955089  0.88149557  1
  H  H792  1  0.81810751  0.18575050  0.97649246  1
  H  H793  1  0.58065642  0.25243513  0.81758579  1
  H  H794  1  0.75052855  0.49696809  0.95580096  1
  C  C795  1  0.59710832  0.14964903  0.88780711  1
  C  C796  1  0.99594951  0.47637742  0.91208118  1
  C  C797  1  0.92806981  0.18507587  0.80457492  1
  N  N798  1  0.65579909  0.24133189  0.87034339  1
  H  H799  1  0.58592541  0.39233827  0.92433868  1
  N  N800  1  0.89726759  0.32414435  0.80705031  1
  Cu  Cu801  1  0.69228732  0.49834083  0.75023171  1
  H  H802  1  0.73919073  0.08618637  0.84904210  1
  C  C803  1  0.55928827  0.11775808  0.92320706  1
  C  C804  1  0.63535201  0.20878938  0.97210662  1
  H  H805  1  0.96401723  0.25640815  0.87927731  1
  C  C806  1  0.94151824  0.30136359  0.77660159  1
  H  H807  1  0.53625956  0.07776324  0.90438254  1
  C  C808  1  0.91692321  0.25347180  0.88516880  1
  H  H809  1  0.88548281  0.18546447  0.82740697  1
  O  O810  1  0.62078611  0.06057159  0.79278198  1
  O  O811  1  0.73232467  0.43666228  0.79345073  1
  C  C812  1  0.62994667  0.20399291  0.91095869  1
  C  C813  1  0.71089989  0.40469346  0.83741689  1
  C  C814  1  0.81499695  0.29394709  0.86924427  1
  O  O815  1  0.69069415  0.43631616  0.87600355  1
  C  C816  1  0.87797181  0.29043981  0.85192026  1
  H  H817  1  0.74668401  0.24923451  0.91838285  1
  C  C818  1  0.61312183  0.01088414  0.97579868  1
  C  C819  1  0.97380144  0.42015800  0.93153617  1
  H  H820  1  0.68585277  0.37483593  0.93085499  1
  H  H821  1  0.93219417  0.19257700  0.96080762  1
  C  C822  1  0.79364139  0.04151098  0.78087763  1
  C  C823  1  0.83864300  0.21689153  0.94283676  1
  H  H824  1  0.84457770  0.45893496  0.79729638  1
  C  C825  1  0.79536011  0.25269567  0.91051280  1
  C  C826  1  0.89907483  0.21793196  0.93337950  1
  Cu  Cu827  1  0.51712428  0.49793142  0.92169026  1
  H  H828  1  0.79987046  0.38863004  0.96256628  1
  H  H829  1  0.78539828  0.33010915  0.85109314  1
  C  C830  1  0.89903985  0.04299414  0.92797613  1
  Cu  Cu831  1  0.95931803  0.04221651  0.83232328  1
  H  H832  1  0.60086413  0.48805424  0.83806195  1
  C  C833  1  0.69711291  0.33565934  0.83555012  1
  H  H834  1  0.63801424  0.33071767  0.96882494  1
  N  N835  1  0.54485142  0.24213573  0.79007801  1
  C  C836  1  0.95795253  0.23665990  0.77818184  1
  N  N837  1  0.95703700  0.13087367  0.79885987  1
  N  N838  1  0.61932147  0.43399587  0.75702568  1
  H  H839  1  0.64250839  0.39714644  0.77235632  1
  H  H840  1  0.80114318  0.36060709  0.75686261  1
  H  H841  1  0.52010862  0.20490941  0.80899279  1
  H  H842  1  0.99289009  0.48285991  0.86581289  1
  C  C843  1  0.97625878  0.40954670  0.99108590  1
  H  H844  1  0.51688629  0.27966968  0.78873110  1
  C  C845  1  0.55694660  0.12830436  0.98218653  1
  H  H846  1  0.66698693  0.23949019  0.99546143  1
  N  N847  1  0.55679487  0.32488837  0.99983132  1
  H  H848  1  0.54189347  0.27914520  0.99072465  1
  C  C849  1  0.73413000  0.45978034  0.98472100  1
  O  O850  1  0.71565527  0.05258594  0.97485719  1
  C  C851  1  0.76232920  0.40019303  0.98943738  1
  C  C852  1  0.84800105  0.44882597  0.75122929  1
  H  H853  1  0.99798525  0.37515143  0.75841004  1
  C  C854  1  0.51757866  0.55745618  0.04774790  1
  C  C855  1  0.87933347  0.50092913  0.20855829  1
  H  H856  1  0.94634338  0.96193855  0.04510149  1
  H  H857  1  0.78435232  0.51309673  0.19170028  1
  N  N858  1  0.53797362  0.60852078  0.12999390  1
  H  H859  1  0.66722391  0.82166041  0.02521527  1
  H  H860  1  0.54931785  0.81276839  0.05307841  1
  C  C861  1  0.73567642  0.62951091  0.19635850  1
  H  H862  1  0.99481920  0.84499101  0.12899310  1
  C  C863  1  0.56764351  0.96371382  0.21157014  1
  C  C864  1  0.69574608  0.57546209  0.19039147  1
  H  H865  1  0.78140071  0.62939118  0.06687306  1
  C  C866  1  0.80318511  0.92278964  0.04148562  1
  O  O867  1  0.72689293  0.79213186  0.17654573  1
  C  C868  1  0.81178208  0.86941385  0.07783990  1
  C  C869  1  0.79973271  0.81081128  0.05833871  1
  H  H870  1  0.52573925  0.99680163  0.08901979  1
  H  H871  1  0.83057916  0.87971222  0.11838600  1
  H  H872  1  0.80731498  0.76937373  0.08378901  1
  H  H873  1  0.80812620  0.67053341  0.24482261  1
  N  N874  1  0.97631780  0.81165119  0.09807464  1
  C  C875  1  0.91882537  0.71802503  0.01462178  1
  O  O876  1  0.61635672  0.96296586  0.19093760  1
  H  H877  1  0.99122000  0.82692769  0.05789929  1
  C  C878  1  0.63458070  0.73415813  0.16169094  1
  N  N879  1  0.67444704  0.76346180  0.13052275  1
  H  H880  1  0.53566335  0.62645242  0.16957477  1
  H  H881  1  0.59636854  0.71170781  0.14111155  1
  H  H882  1  0.66677944  0.52462727  0.01715899  1
  H  H883  1  0.88747336  0.54117019  0.23876236  1
  H  H884  1  0.80932324  0.97224815  0.05813725  1
  C  C885  1  0.94100302  0.76289754  0.10577047  1
  C  C886  1  0.52274400  0.91774126  0.19833853  1
  N  N887  1  0.58271235  0.87086839  0.12544176  1
  H  H888  1  0.61343709  0.90081620  0.14344559  1
  C  C889  1  0.92342418  0.75457922  0.16386465  1
  N  N890  1  0.77373392  0.67568566  0.05331681  1
  H  H891  1  0.88470115  0.68006337  0.09349320  1
  C  C892  1  0.70539305  0.77401203  0.22726019  1
  C  C893  1  0.65098502  0.73720667  0.22118763  1
  O  O894  1  0.83965995  0.95910532  0.18849523  1
  C  C895  1  0.77373929  0.63265330  0.24151909  1
  H  H896  1  0.88293881  0.81524624  0.01787642  1
  H  H897  1  0.73377242  0.66223673  0.15954457  1
  C  C898  1  0.57462427  0.57769043  0.02207486  1
  H  H899  1  0.67550374  0.56796687  0.14792918  1
  N  N900  1  0.97237009  0.82340391  0.23769952  1
  O  O901  1  0.60922878  0.61643414  0.04292204  1
  O  O902  1  0.86581234  0.65575157  0.16359620  1
  H  H903  1  0.74193332  0.69714853  0.07747222  1
  H  H904  1  0.60579354  0.82835915  0.12055502  1
  C  C905  1  0.88656351  0.70024639  0.18971687  1
  N  N906  1  0.90999359  0.71684352  0.07644318  1
  H  H907  1  0.57694213  0.61951452  0.10636930  1
  C  C908  1  0.95075774  0.79254825  0.20256296  1
  C  C909  1  0.88018525  0.97882578  0.21631018  1
  C  C910  1  0.50991225  0.78249666  0.05801305  1
  C  C911  1  0.52918306  0.87029948  0.15550367  1
  H  H912  1  0.81684803  0.89007143  0.22773129  1
  O  O913  1  0.88483870  0.70382757  0.24241134  1
  H  H914  1  0.96221996  0.65061576  0.10591199  1
  O  O915  1  0.81530531  0.56306564  0.02824574  1
  N  N916  1  0.99531453  0.62074128  0.11862073  1
  C  C917  1  0.92664757  0.99486977  0.01519784  1
  C  C918  1  0.68221777  0.53396483  0.23235057  1
  N  N919  1  0.57371449  0.67074937  0.24830718  1
  C  C920  1  0.77965405  0.80234523  0.00006302  1
  H  H921  1  0.72420745  0.93380665  0.27334019  1
  C  C922  1  0.51706808  0.58995415  0.29643955  1
  H  H923  1  0.67066243  0.75458629  0.32356709  1
  N  N924  1  0.91421529  0.51383227  0.45030128  1
  H  H925  1  0.79444055  0.93732847  0.35778255  1
  Cu  Cu926  1  0.99904107  0.54284712  0.42684026  1
  C  C927  1  0.81021478  0.57146053  0.34877314  1
  C  C928  1  0.54681339  0.92374748  0.42613250  1
  C  C929  1  0.54574358  0.53594240  0.48945412  1
  O  O930  1  0.73108075  0.78937539  0.27007474  1
  C  C931  1  0.57358074  0.81978829  0.47491773  1
  H  H932  1  0.92881502  0.86127369  0.45076164  1
  H  H933  1  0.65590821  0.62712170  0.31320802  1
  O  O934  1  0.51268517  0.95599347  0.39276896  1
  H  H935  1  0.87871923  0.66334248  0.45092047  1
  Cu  Cu936  1  0.53740427  0.98345546  0.32034596  1
  C  C937  1  0.88443057  0.71002687  0.42978063  1
  C  C938  1  0.72158549  0.96889524  0.30713460  1
  H  H939  1  0.84802903  0.66812290  0.35564734  1
  H  H940  1  0.93481045  0.75851172  0.49962348  1
  N  N941  1  0.66833214  0.58423341  0.32648823  1
  H  H942  1  0.85844690  0.76946094  0.29961257  1
  N  N943  1  0.89142788  0.87997452  0.34854707  1
  O  O944  1  0.59202648  0.95095507  0.44295719  1
  C  C945  1  0.90991264  0.76180013  0.45953481  1
  C  C946  1  0.86818803  0.71120184  0.37330809  1
  H  H947  1  0.54179447  0.60707900  0.42364902  1
  C  C948  1  0.53184474  0.65508840  0.28840876  1
  C  C949  1  0.87085436  0.54089822  0.43011314  1
  C  C950  1  0.90966980  0.81821334  0.43165965  1
  O  O951  1  0.71660723  0.60042285  0.43334102  1
  N  N952  1  0.82533661  0.86884071  0.26755888  1
  C  C953  1  0.61517521  0.71145556  0.26533023  1
  C  C954  1  0.86919651  0.76917249  0.34581761  1
  C  C955  1  0.82358520  0.56950404  0.40641682  1
  H  H956  1  0.58855382  0.51456422  0.47262370  1
  N  N957  1  0.63096371  0.73130719  0.32002687  1
  C  C958  1  0.76822767  0.59942858  0.45004803  1
  O  O959  1  0.98121037  0.51572602  0.35393340  1
  C  C960  1  0.88775363  0.82345378  0.37480597  1
  H  H961  1  0.50224207  0.74734358  0.31364619  1
  C  C962  1  0.70425248  0.54618493  0.28960279  1
  H  H963  1  0.70433088  0.50198471  0.31918865  1
  C  C964  1  0.76825686  0.58842097  0.28928033  1
  C  C965  1  0.75878726  0.96963541  0.35633259  1
  C  C966  1  0.86917248  0.89638010  0.29830920  1
  H  H967  1  0.61806070  0.72468515  0.36027416  1
  Cu  Cu968  1  0.66763312  0.92321165  0.45258909  1
  N  N969  1  0.82206999  0.56067102  0.30070913  1
  H  H970  1  0.94990083  0.82587686  0.27556182  1
  H  H971  1  0.67842109  0.58545373  0.36882613  1
  C  C972  1  0.53344842  0.85955376  0.44369155  1
  H  H973  1  0.66471691  0.72191721  0.47010737  1
  H  H974  1  0.54314542  0.55722085  0.27237554  1
  C  C975  1  0.94725105  0.97887639  0.29581795  1
  C  C976  1  0.89990226  0.94978474  0.27165379  1
  O  O977  1  0.73617559  0.89690807  0.46672101  1
  H  H978  1  0.79430164  0.83070493  0.27478337  1
  N  N979  1  0.55047033  0.76635794  0.49370369  1
  N  N980  1  0.63544674  0.83989760  0.48465463  1
  C  C981  1  0.52027287  0.58594462  0.46062175  1
  O  O982  1  0.83050758  0.89200201  0.49868815  1
  O  O983  1  0.79027118  0.61956018  0.49370259  1
  H  H984  1  0.66874813  0.80961097  0.47645557  1
  H  H985  1  0.91179476  0.51576830  0.49542761  1
  H  H986  1  0.50795778  0.54126462  0.65744909  1
  H  H987  1  0.88076286  0.93647629  0.54787594  1
  C  C988  1  0.78749056  0.59639342  0.68791994  1
  H  H989  1  0.50991620  0.71564644  0.57864054  1
  C  C990  1  0.82775124  0.63974488  0.65795534  1
  N  N991  1  0.81049814  0.62610900  0.60491417  1
  C  C992  1  0.51909197  0.51466042  0.54149578  1
  C  C993  1  0.55556232  0.69665246  0.57240726  1
  C  C994  1  0.89343131  0.79882696  0.58138736  1
  H  H995  1  0.62826186  0.75394851  0.67354303  1
  C  C996  1  0.93982502  0.83503745  0.60606203  1
  C  C997  1  0.67206797  0.65606138  0.53828157  1
  C  C998  1  0.86827533  0.74824696  0.60849128  1
  N  N999  1  0.86086996  0.67811872  0.68958961  1
  C  C1000  1  0.88965305  0.72641836  0.66022169  1
  C  C1001  1  0.93729582  0.76050944  0.68773184  1
  C  C1002  1  0.76694397  0.86268859  0.65387741  1
  C  C1003  1  0.66383937  0.83997591  0.63863861  1
  C  C1004  1  0.66788970  0.78188683  0.66703304  1
  H  H1005  1  0.66751779  0.59204171  0.61059203  1
  H  H1006  1  0.61545027  0.99917576  0.68286660  1
  C  C1007  1  0.75788983  0.54530831  0.66314812  1
  H  H1008  1  0.82867204  0.64308896  0.56939766  1
  C  C1009  1  0.71379739  0.88112567  0.63144272  1
  N  N1010  1  0.87478645  0.97232436  0.57727135  1
  N  N1011  1  0.91203152  0.53473013  0.73619485  1
  H  H1012  1  0.81631871  0.78727087  0.69549966  1
  C  C1013  1  0.50642193  0.86967610  0.73797355  1
  N  N1014  1  0.50997930  0.85663063  0.61268992  1
  C  C1015  1  0.96501420  0.55289781  0.71564457  1
  C  C1016  1  0.58710347  0.65139467  0.60263632  1
  H  H1017  1  0.95597301  0.74411846  0.72723094  1
  H  H1018  1  0.98975273  0.84401679  0.68087353  1
  H  H1019  1  0.82706575  0.72290063  0.59268601  1
  H  H1020  1  0.50963997  0.87151006  0.57102518  1
  C  C1021  1  0.56462094  0.85760051  0.64270021  1
  C  C1022  1  0.99718576  0.60359792  0.74052603  1
  H  H1023  1  0.78617437  0.58266298  0.59787182  1
  H  H1024  1  0.65870571  0.86190043  0.72403839  1
  C  C1025  1  0.61165932  0.86754025  0.73705181  1
  H  H1026  1  0.57062245  0.72597666  0.74814821  1
  N  N1027  1  0.61307920  0.86555038  0.61383044  1
  H  H1028  1  0.73071629  0.71948387  0.70728917  1
  C  C1029  1  0.77245785  0.97028505  0.53794889  1
  H  H1030  1  0.56760590  0.62990684  0.64119189  1
  C  C1031  1  0.64269048  0.62684611  0.58501307  1
  H  H1032  1  0.96137399  0.87587398  0.58339548  1
  C  C1033  1  0.62504910  0.61870399  0.74557382  1
  C  C1034  1  0.56007460  0.86487404  0.70369190  1
  C  C1035  1  0.95809422  0.81444611  0.66004315  1
  H  H1036  1  0.80277344  0.89617186  0.64077971  1
  C  C1037  1  0.77297841  0.80550155  0.68277029  1
  C  C1038  1  0.72273812  0.76663064  0.69004161  1
  H  H1039  1  0.87595190  0.81076600  0.53951288  1
  O  O1040  1  0.63596490  0.66393773  0.71656704  1
  H  H1041  1  0.70599783  0.92562817  0.61023110  1
  H  H1042  1  0.63834967  0.84123382  0.52791786  1
  C  C1043  1  0.58383718  0.72422948  0.52519588  1
  H  H1044  1  0.71864039  0.64030732  0.52790721  1
  O  O1045  1  0.64115550  0.56202273  0.72718209  1
  O  O1046  1  0.50637920  0.70795661  0.69407392  1
  C  C1047  1  0.78085389  0.91578890  0.50044612  1
  N  N1048  1  0.99213583  0.53359139  0.66611714  1
  N  N1049  1  0.66983512  0.99991292  0.51257524  1
  C  C1050  1  0.71717077  0.99347137  0.53112415  1
  N  N1051  1  0.72389405  0.50340002  0.66492297  1
  H  H1052  1  0.91407007  0.98463505  0.59489142  1
  C  C1053  1  0.64219854  0.70322077  0.50876929  1
  O  O1054  1  0.62963902  0.99195492  0.72199534  1
  C  C1055  1  0.77653900  0.59908944  0.74973668  1
  C  C1056  1  0.59903143  0.62440868  0.80316131  1
  C  C1057  1  0.58594906  0.57127327  0.83117712  1
  C  C1058  1  0.58650770  0.68628315  0.83090778  1
  N  N1059  1  0.60309303  0.68903894  0.88343805  1
  C  C1060  1  0.82227103  0.58189843  0.97990681  1
  N  N1061  1  0.56928322  0.73234090  0.79139394  1
  C  C1062  1  0.82164240  0.93053712  0.78318441  1
  Cu  Cu1063  1  0.63296662  0.87655711  0.86170088  1
  N  N1064  1  0.71153300  0.88282091  0.83473468  1
  N  N1065  1  0.59802183  0.87446409  0.79037000  1
  C  C1066  1  0.94235150  0.66991465  0.98032493  1
  H  H1067  1  0.95161901  0.61976322  0.99098304  1
  H  H1068  1  0.52419955  0.78324177  0.85700919  1
  N  N1069  1  0.63081120  0.96821544  0.87867950  1
  C  C1070  1  0.91858193  0.79647462  0.93699336  1
  C  C1071  1  0.54902460  0.84661983  0.92693541  1
  H  H1072  1  0.74845088  0.79716233  0.83221837  1
  C  C1073  1  0.75414881  0.84725956  0.82006396  1
  C  C1074  1  0.94333549  0.74894469  0.90287168  1
  C  C1075  1  0.85517673  0.81611950  0.79879497  1
  N  N1076  1  0.96027113  0.95322237  0.86366285  1
  O  O1077  1  0.52039241  0.87715055  0.79002007  1
  C  C1078  1  0.80978077  0.86690671  0.79837050  1
  H  H1079  1  0.91774543  0.94063027  0.85476691  1
  N  N1080  1  0.77861668  0.97643985  0.79051397  1
  C  C1081  1  0.55578463  0.79335439  0.89312463  1
  N  N1082  1  0.57333089  0.52370467  0.85744433  1
  Cu  Cu1083  1  0.86792532  0.56607473  0.80570687  1
  C  C1084  1  0.58752088  0.85506298  0.97568472  1
  C  C1085  1  0.93284487  0.99400223  0.95372254  1
  C  C1086  1  0.60083418  0.74821921  0.90865590  1
  O  O1087  1  0.99797105  0.67737949  0.81725273  1
  H  H1088  1  0.67224662  0.72132460  0.96697411  1
  C  C1089  1  0.96598851  0.94713062  0.92543228  1
  C  C1090  1  0.98091841  0.62831928  0.80043123  1
  O  O1091  1  0.94482848  0.59096960  0.82642608  1
  N  N1092  1  0.78142880  0.74728705  0.97141323  1
  O  O1093  1  0.84003423  0.76162381  0.81714074  1
  H  H1094  1  0.81334532  0.69364165  0.87065113  1
  H  H1095  1  0.91039872  0.84602551  0.91851913  1
  N  N1096  1  0.83818476  0.60085245  0.87818988  1
  C  C1097  1  0.63489481  0.81251823  0.99045845  1
  H  H1098  1  0.57560681  0.77869848  0.79838102  1
  C  C1099  1  0.95820187  0.69044950  0.92625203  1
  C  C1100  1  0.77429669  0.85491729  0.96259825  1
  C  C1101  1  0.63787044  0.75808000  0.95748837  1
  O  O1102  1  0.58852195  0.55386393  0.97468443  1
  H  H1103  1  0.94962065  0.75288789  0.85661552  1
  H  H1104  1  0.97615205  0.65162830  0.89997678  1
  O  O1105  1  0.84402077  0.55064905  0.93653365  1
  C  C1106  1  0.78444364  0.69284836  0.99726361  1
  C  C1107  1  0.81737273  0.65258626  0.90091830  1
  C  C1108  1  0.80640443  0.64518602  0.95962417  1
  Cu  Cu1109  1  0.70751823  0.97033012  0.83367368  1
  H  H1110  1  0.98228290  0.92492481  0.83451543  1
  H  H1111  1  0.75877077  0.85084639  0.91976326  1
  N  N1112  1  0.51305006  0.98605214  0.97378189  1
  C  C1113  1  0.62296762  0.98836300  0.92377821  1
  O  O1114  1  0.90596010  0.82488683  0.78329745  1
  O  O1115  1  0.78730815  0.64973756  0.77525338  1
  O  O1116  1  0.75306151  0.55445407  0.77660309  1
  Cu  Cu1117  1  0.86638911  0.68615664  0.77531548  1
  H  H1118  1  0.77338243  0.95567441  0.95859207  1
  C  C1119  1  0.78556885  0.91394764  0.98546744  1
  C  C1120  1  0.90589678  0.77979158  0.99246960  1
  N  N1121  1  0.99402642  0.90753007  0.95724795  1
  H  H1122  1  0.51179255  0.88017807  0.92036761  1
  N  N1123  1  0.87901187  0.93976367  0.76708993  1
  H  H1124  1  0.51915831  0.72981373  0.98015469  1
  H  H1125  1  0.58405562  0.89898053  0.99836727  1
  H  H1126  1  0.90366205  0.98051457  0.75434403  1
  H  H1127  1  0.90826766  0.89984877  0.76823362  1
