# generated using pymatgen
data_Cu2H24C41O8
_symmetry_space_group_name_H-M   'P 1'
_cell_length_a   42.15701625
_cell_length_b   30.96150508
_cell_length_c   33.05723611
_cell_angle_alpha   90.00000000
_cell_angle_beta   90.00000000
_cell_angle_gamma   90.00000000
_symmetry_Int_Tables_number   1
_chemical_formula_structural   Cu2H24C41O8
_chemical_formula_sum   'Cu96 H1152 C1968 O384'
_cell_volume   43147.78133305
_cell_formula_units_Z   48
loop_
 _symmetry_equiv_pos_site_id
 _symmetry_equiv_pos_as_xyz
  1  'x, y, z'
loop_
 _atom_site_type_symbol
 _atom_site_label
 _atom_site_symmetry_multiplicity
 _atom_site_fract_x
 _atom_site_fract_y
 _atom_site_fract_z
 _atom_site_occupancy
  O  O0  1  0.19134933  0.18918684  0.18837566  1
  C  C1  1  0.17534238  0.16495275  0.16523063  1
  O  O2  1  0.16844781  0.12637337  0.17446492  1
  C  C3  1  0.16113318  0.18167497  0.12817005  1
  C  C4  1  0.14439247  0.15503465  0.10041092  1
  H  H5  1  0.14105861  0.11838265  0.10642775  1
  C  C6  1  0.13368191  0.21903621  0.06002829  1
  O  O7  1  0.05664592  0.07101624  0.20626910  1
  O  O8  1  0.13205733  0.02786016  0.21444953  1
  C  C9  1  0.13070615  0.17340684  0.06673809  1
  Cu  Cu10  1  0.11809831  0.14938101  0.21177579  1
  O  O11  1  0.07475034  0.13758298  0.19979488  1
  C  C12  1  0.16070117  0.02272341  0.20282323  1
  O  O13  1  0.18054838  0.05026498  0.21522486  1
  C  C14  1  0.08260925  0.08100299  0.09874463  1
  C  C15  1  0.09573814  0.07992562  0.05609403  1
  C  C16  1  0.12732439  0.06407721  0.05177581  1
  H  H17  1  0.13861080  0.04623495  0.07650197  1
  C  C18  1  0.06007989  0.10656141  0.21935250  1
  H  H19  1  0.11682399  0.15134819  0.04806377  1
  C  C20  1  0.21962654  0.07089891  0.09421995  1
  H  H21  1  0.19344768  0.06637347  0.09519163  1
  H  H22  1  0.22051913  0.13254327  0.12658684  1
  C  C23  1  0.23481243  0.10553903  0.11408547  1
  H  H24  1  0.05953764  0.12703124  0.13820009  1
  C  C25  1  0.06931657  0.12072217  0.10902232  1
  H  H26  1  0.07016696  0.14812736  0.08752141  1
  Cu  Cu27  1  0.17229362  0.10523299  0.22816658  1
  Cu  Cu28  1  0.22232103  0.16787480  0.22584502  1
  C  C29  1  0.04686856  0.22162826  0.05947365  1
  H  H30  1  0.05754313  0.12398308  0.03239152  1
  C  C31  1  0.16535267  0.22555631  0.11912360  1
  C  C32  1  0.22769036  0.00340690  0.05168323  1
  C  C33  1  0.08065899  0.04255777  0.12612465  1
  H  H34  1  0.07266001  0.04919421  0.15853030  1
  C  C35  1  0.08038051  0.10606239  0.02639531  1
  C  C36  1  0.03003375  0.20199172  0.09185229  1
  H  H37  1  0.21972125  0.00899696  0.17537027  1
  C  C38  1  0.03632454  0.21309868  0.13536823  1
  C  C39  1  0.04765764  0.20758915  0.02038991  1
  C  C40  1  0.23913046  0.04209278  0.07392793  1
  H  H41  1  0.17724747  0.01757394  0.05083373  1
  C  C42  1  0.04103717  0.21790927  0.17102647  1
  C  C43  1  0.12030098  0.24462881  0.02327073  1
  Cu  Cu44  1  0.11257857  0.07416173  0.23962293  1
  H  H45  1  0.06391001  0.24693443  0.06749093  1
  O  O46  1  0.12545141  0.20795140  0.22779496  1
  C  C47  1  0.15040241  0.24615839  0.08702414  1
  C  C48  1  0.14279510  0.07128075  0.01402591  1
  C  C49  1  0.02813482  0.17158508  0.01013401  1
  H  H50  1  0.23331837  0.24194657  0.10275112  1
  C  C51  1  0.19663367  0.00157068  0.03583455  1
  H  H52  1  0.22366677  0.10511240  0.00581707  1
  H  H53  1  0.18001410  0.24269418  0.13982736  1
  C  C54  1  0.08927851  0.00324817  0.11442330  1
  C  C55  1  0.01202713  0.16410152  0.08003803  1
  H  H56  1  0.16664151  0.06294056  0.00705658  1
  H  H57  1  0.04422373  0.22479173  0.20376746  1
  C  C58  1  0.00920118  0.15104971  0.04094158  1
  H  H59  1  0.23701037  0.49745113  0.14919544  1
  C  C60  1  0.24327410  0.25339537  0.23962613  1
  H  H61  1  0.15228671  0.28292174  0.08595181  1
  H  H62  1  0.11768855  0.28095001  0.20233743  1
  C  C63  1  0.10965795  0.28764997  0.03128160  1
  H  H64  1  0.07615991  0.30682766  0.16796695  1
  C  C65  1  0.09931566  0.29860045  0.07065090  1
  C  C66  1  0.04168268  0.32826299  0.23493738  1
  C  C67  1  0.18204821  0.47631326  0.10635334  1
  C  C68  1  0.08823611  0.31133230  0.10304628  1
  C  C69  1  0.06143120  0.36742204  0.14107406  1
  H  H70  1  0.06451763  0.38550545  0.11206391  1
  C  C71  1  0.07654130  0.32671680  0.14054730  1
  C  C72  1  0.22247520  0.38146583  0.15384857  1
  H  H73  1  0.21307926  0.40514378  0.09319542  1
  C  C74  1  0.03644607  0.37885517  0.16781091  1
  C  C75  1  0.20916299  0.41015163  0.12617750  1
  C  C76  1  0.20774608  0.42373130  0.20945087  1
  H  H77  1  0.10668472  0.42198195  0.09398180  1
  C  C78  1  0.14245384  0.39381633  0.05584280  1
  H  H79  1  0.16071260  0.38956487  0.07860455  1
  C  C80  1  0.19402679  0.44822816  0.13974661  1
  O  O81  1  0.05745044  0.45683730  0.07263112  1
  C  C82  1  0.22196577  0.38427022  0.19663597  1
  C  C83  1  0.11277154  0.41206947  0.06298715  1
  H  H84  1  0.14802544  0.45812345  0.24040492  1
  C  C85  1  0.19599197  0.45535397  0.18223864  1
  H  H86  1  0.19810534  0.44159459  0.05372783  1
  C  C87  1  0.18257018  0.46817742  0.06389913  1
  C  C88  1  0.06264650  0.44132375  0.03583813  1
  H  H89  1  0.11853722  0.36181743  0.21054651  1
  H  H90  1  0.20830028  0.29271536  0.15298988  1
  C  C91  1  0.22878985  0.30274222  0.13268692  1
  C  C92  1  0.09282615  0.41961260  0.02863305  1
  C  C93  1  0.14992601  0.37783168  0.01600609  1
  H  H94  1  0.18440680  0.48524642  0.19383719  1
  H  H95  1  0.08144918  0.40475499  0.22409725  1
  H  H96  1  0.03689582  0.44045880  0.13659970  1
  H  H97  1  0.04797781  0.45957455  0.19677141  1
  C  C98  1  0.02562242  0.34393209  0.19917679  1
  C  C99  1  0.02336310  0.41974115  0.15726970  1
  H  H100  1  0.23214004  0.35932949  0.21580261  1
  O  O101  1  0.04296895  0.44732200  0.01012122  1
  H  H102  1  0.13455246  0.48544305  0.18112182  1
  H  H103  1  0.21231321  0.41253849  0.00681285  1
  C  C104  1  0.11808455  0.34125973  0.23818897  1
  C  C105  1  0.12010043  0.29619924  0.23323314  1
  C  C106  1  0.08630107  0.42473809  0.24981768  1
  H  H107  1  0.06226674  0.34439310  0.24879570  1
  C  C108  1  0.05373279  0.48436836  0.21988422  1
  C  C109  1  0.24236646  0.27515281  0.10425561  1
  C  C110  1  0.16508525  0.49217866  0.03589433  1
  C  C111  1  0.21033492  0.37679539  0.00465510  1
  C  C112  1  0.18134454  0.35388400  0.00765775  1
  C  C113  1  0.17980341  0.30715536  0.00125466  1
  H  H114  1  0.15696175  0.28889966  0.00278151  1
  C  C115  1  0.23989742  0.34642968  0.13052808  1
  H  H116  1  0.16663249  0.47983094  0.00455745  1
  H  H117  1  0.10708896  0.31105321  0.00545612  1
  O  O118  1  0.22677512  0.22205872  0.25100475  1
  C  C119  1  0.21811727  0.00199879  0.48144011  1
  H  H120  1  0.00357414  0.09146244  0.48381775  1
  O  O121  1  0.00443429  0.21926606  0.29460422  1
  H  H122  1  0.07912619  0.17658836  0.26418370  1
  C  C123  1  0.05629372  0.11428414  0.26372776  1
  H  H124  1  0.05461650  0.00378221  0.29996668  1
  H  H125  1  0.11164635  0.01033042  0.32552468  1
  H  H126  1  0.02929578  0.05455551  0.27178627  1
  C  C127  1  0.13133424  0.22483077  0.26285971  1
  H  H128  1  0.02348431  0.06224274  0.34594454  1
  H  H129  1  0.11939997  0.05750066  0.47720340  1
  H  H130  1  0.20885049  0.03630617  0.40545334  1
  O  O131  1  0.17466413  0.09025865  0.28444351  1
  C  C132  1  0.03902794  0.08333139  0.28639836  1
  O  O133  1  0.12314554  0.08829632  0.29148227  1
  C  C134  1  0.06727265  0.15193490  0.28266985  1
  H  H135  1  0.05580669  0.06323844  0.40270164  1
  C  C136  1  0.03752489  0.08784410  0.32820738  1
  H  H137  1  0.10066928  0.10528891  0.34999857  1
  H  H138  1  0.09858625  0.12767016  0.42515247  1
  C  C139  1  0.12112413  0.12684624  0.40808199  1
  H  H140  1  0.07593908  0.18542686  0.33734089  1
  C  C141  1  0.04877469  0.12554493  0.34904389  1
  C  C142  1  0.05348821  0.17229104  0.41249501  1
  C  C143  1  0.05292233  0.13062101  0.39437950  1
  C  C144  1  0.06329333  0.15911047  0.32446871  1
  C  C145  1  0.15091182  0.13164597  0.42868054  1
  C  C146  1  0.05561507  0.09443939  0.41950510  1
  C  C147  1  0.15093220  0.10795265  0.34870801  1
  C  C148  1  0.18048137  0.12572480  0.40888485  1
  C  C149  1  0.18045389  0.11328766  0.36887234  1
  H  H150  1  0.20368711  0.12912990  0.42309797  1
  H  H151  1  0.20259140  0.10632924  0.35443196  1
  C  C152  1  0.14963356  0.13851665  0.47391186  1
  C  C153  1  0.06246119  0.09869808  0.46032608  1
  C  C154  1  0.15060069  0.09450991  0.30674687  1
  C  C155  1  0.12156266  0.11430127  0.36808212  1
  C  C156  1  0.06061088  0.17712595  0.45340629  1
  C  C157  1  0.06579337  0.13955583  0.47770372  1
  C  C158  1  0.06763696  0.05525841  0.48346177  1
  H  H159  1  0.17160417  0.07834008  0.47962229  1
  H  H160  1  0.11165238  0.20500988  0.41939896  1
  H  H161  1  0.04752803  0.19943825  0.39253203  1
  H  H162  1  0.21937990  0.19533053  0.34110766  1
  H  H163  1  0.16004040  0.20495975  0.34834098  1
  O  O164  1  0.13761950  0.20426251  0.29186359  1
  C  C165  1  0.06370178  0.22411838  0.47071901  1
  C  C166  1  0.22813047  0.01288694  0.40603182  1
  C  C167  1  0.09913888  0.03833340  0.48749566  1
  H  H168  1  0.23303756  0.01196634  0.34078458  1
  C  C169  1  0.20928795  0.22123143  0.36019989  1
  C  C170  1  0.17709772  0.22568640  0.36626151  1
  H  H171  1  0.04026938  0.23884383  0.47422279  1
  H  H172  1  0.12551449  0.19735273  0.47356954  1
  H  H173  1  0.01835734  0.04011569  0.49136257  1
  C  C174  1  0.04227637  0.02932438  0.49489679  1
  C  C175  1  0.09221490  0.00227524  0.34571929  1
  C  C176  1  0.16264686  0.10519667  0.49711685  1
  C  C177  1  0.10915451  0.23911733  0.42434319  1
  H  H178  1  0.22156880  0.06975321  0.49872421  1
  C  C179  1  0.13542833  0.17282046  0.49415164  1
  C  C180  1  0.22973782  0.24638709  0.38475316  1
  C  C181  1  0.10751529  0.47901927  0.31591879  1
  C  C182  1  0.16181449  0.48367016  0.25354243  1
  C  C183  1  0.07492515  0.46704167  0.25467528  1
  C  C184  1  0.15160465  0.49519692  0.36207916  1
  C  C185  1  0.24800262  0.40587930  0.38280538  1
  C  C186  1  0.00261191  0.49247357  0.26732821  1
  H  H187  1  0.22407649  0.39256951  0.38433077  1
  C  C188  1  0.22939696  0.32822378  0.32645826  1
  C  C189  1  0.12620485  0.27321318  0.26897404  1
  C  C190  1  0.08847208  0.41349302  0.41301932  1
  C  C191  1  0.21002273  0.43204471  0.25722448  1
  H  H192  1  0.19738696  0.40432439  0.27417463  1
  C  C193  1  0.19358826  0.47543339  0.26735757  1
  C  C194  1  0.02715748  0.29421276  0.25556525  1
  H  H195  1  0.23609133  0.42977592  0.26749332  1
  C  C196  1  0.09625884  0.46705716  0.46488868  1
  C  C197  1  0.19324001  0.44680310  0.48749971  1
  H  H198  1  0.24335661  0.37071869  0.49742549  1
  C  C199  1  0.24370474  0.43559507  0.45594114  1
  H  H200  1  0.16735961  0.44853366  0.48254245  1
  H  H201  1  0.03887197  0.28124610  0.28312483  1
  H  H202  1  0.14645722  0.33181106  0.39453491  1
  C  C203  1  0.08355177  0.25856873  0.44614733  1
  H  H204  1  0.18006382  0.30612005  0.44504074  1
  C  C205  1  0.16605833  0.25643380  0.39484233  1
  C  C206  1  0.24632156  0.29148909  0.26475426  1
  H  H207  1  0.21432185  0.32722236  0.35375754  1
  H  H208  1  0.00642065  0.46223967  0.28346954  1
  C  C209  1  0.20999232  0.43408807  0.45395596  1
  C  C210  1  0.08036377  0.30409803  0.45028333  1
  H  H211  1  0.07617698  0.40452149  0.38476980  1
  C  C212  1  0.12732705  0.31328046  0.40867929  1
  H  H213  1  0.08082144  0.48335154  0.40394462  1
  H  H214  1  0.16159241  0.46786337  0.34771199  1
  C  C215  1  0.11500952  0.35987878  0.27835208  1
  C  C216  1  0.21894970  0.27215856  0.41763150  1
  H  H217  1  0.06153732  0.31672775  0.47048718  1
  H  H218  1  0.19719047  0.42507733  0.42474476  1
  C  C219  1  0.13243687  0.26784466  0.40773588  1
  H  H220  1  0.23726281  0.28663027  0.43778714  1
  H  H221  1  0.11901634  0.35029499  0.34347065  1
  C  C222  1  0.08766120  0.45708135  0.42485235  1
  C  C223  1  0.11639698  0.43291459  0.31526809  1
  C  C224  1  0.22641801  0.29606776  0.29901179  1
  C  C225  1  0.18703978  0.27974232  0.42247309  1
  C  C226  1  0.11912952  0.33427154  0.31405690  1
  C  C227  1  0.10231500  0.33266950  0.43111472  1
  H  H228  1  0.13068460  0.26933665  0.33407619  1
  C  C229  1  0.12658359  0.29147793  0.30930901  1
  H  H230  1  0.12982668  0.41728253  0.33792587  1
  C  C231  1  0.10610471  0.40677669  0.28256864  1
  C  C232  1  0.08656429  0.49439788  0.28614476  1
  C  C233  1  0.09906502  0.38221068  0.43980822  1
  H  H234  1  0.20872190  0.26991172  0.30488797  1
  H  H235  1  0.11871943  0.25870586  0.49871583  1
  C  C236  1  0.11273035  0.43667839  0.49002343  1
  H  H237  1  0.12237044  0.36915508  0.49919896  1
  C  C238  1  0.11213370  0.39293846  0.47792267  1
  H  H239  1  0.14863465  0.13765042  0.59036042  1
  C  C240  1  0.06363379  0.03518579  0.59575154  1
  C  C241  1  0.12202649  0.21719524  0.55579980  1
  C  C242  1  0.14845282  0.14171773  0.55725351  1
  C  C243  1  0.11292914  0.21673151  0.59762530  1
  H  H244  1  0.11733048  0.18777963  0.61536030  1
  C  C245  1  0.02922486  0.21441982  0.68061982  1
  C  C246  1  0.04061424  0.19008603  0.64522675  1
  C  C247  1  0.17861775  0.14441114  0.70984248  1
  C  C248  1  0.17581694  0.06685560  0.56195563  1
  H  H249  1  0.05989379  0.03686947  0.56256897  1
  H  H250  1  0.04395506  0.19073017  0.58003083  1
  C  C251  1  0.03562676  0.20758744  0.60732772  1
  H  H252  1  0.05010092  0.15742021  0.64577295  1
  C  C253  1  0.16055123  0.18624581  0.71060458  1
  C  C254  1  0.17736437  0.11229189  0.67857659  1
  C  C255  1  0.04681532  0.06187066  0.62413522  1
  H  H256  1  0.17183597  0.06123807  0.59441139  1
  C  C257  1  0.04999667  0.06023051  0.66748654  1
  C  C258  1  0.07331945  0.03254909  0.67972065  1
  H  H259  1  0.16512137  0.11722868  0.65137340  1
  H  H260  1  0.03547260  0.08089665  0.68833399  1
  H  H261  1  0.03863917  0.09027002  0.54282075  1
  C  C262  1  0.13523005  0.17663721  0.53738012  1
  H  H263  1  0.11233101  0.10397672  0.71445697  1
  C  C264  1  0.02399537  0.09438156  0.60820203  1
  C  C265  1  0.02087106  0.10253921  0.56505950  1
  H  H266  1  0.08320807  0.17752265  0.70373950  1
  C  C267  1  0.15751357  0.21707855  0.67827478  1
  C  C268  1  0.16271889  0.10314578  0.54030877  1
  H  H269  1  0.17067228  0.21447402  0.64952335  1
  H  H270  1  0.08051872  0.03160042  0.71203122  1
  C  C271  1  0.19760158  0.07819691  0.68207821  1
  C  C272  1  0.21440842  0.07269404  0.71982812  1
  C  C273  1  0.03290312  0.19117616  0.72038685  1
  H  H274  1  0.20246900  0.05801848  0.65626372  1
  H  H275  1  0.15709192  0.05932517  0.74040963  1
  C  C276  1  0.06227188  0.17029960  0.72561520  1
  C  C277  1  0.08691493  0.00748785  0.60874015  1
  C  C278  1  0.19050618  0.03153190  0.53971268  1
  C  C279  1  0.23168748  0.03270141  0.72555943  1
  H  H280  1  0.22344806  0.23672800  0.70784438  1
  C  C281  1  0.09301418  0.01092543  0.65106711  1
  C  C282  1  0.11431333  0.09890042  0.74653951  1
  C  C283  1  0.22879529  0.22306739  0.73725744  1
  C  C284  1  0.00458494  0.11372853  0.63807862  1
  H  H285  1  0.00514103  0.10454156  0.66981390  1
  C  C286  1  0.00061288  0.13690434  0.55403156  1
  O  O287  1  0.23381593  0.00234087  0.70061666  1
  H  H288  1  0.07365390  0.14408299  0.50878199  1
  H  H289  1  0.07366837  0.22133761  0.50203501  1
  C  C290  1  0.10690311  0.00013537  0.50608438  1
  C  C291  1  0.14340262  0.19253696  0.74753947  1
  C  C292  1  0.19674664  0.13912608  0.74611841  1
  C  C293  1  0.21107529  0.03749418  0.50420244  1
  H  H294  1  0.08984143  0.25188766  0.64858725  1
  C  C295  1  0.01724089  0.25676488  0.67813889  1
  C  C296  1  0.09913742  0.25220090  0.61728841  1
  C  C297  1  0.11370971  0.25488839  0.53253330  1
  H  H298  1  0.00235176  0.48977281  0.71253593  1
  C  C299  1  0.02323000  0.25006050  0.60410613  1
  C  C300  1  0.14277964  0.25720787  0.68646673  1
  O  O301  1  0.03186600  0.26536657  0.53410165  1
  C  C302  1  0.12702929  0.26614591  0.72346644  1
  C  C303  1  0.02129306  0.27623485  0.56622664  1
  H  H304  1  0.14879528  0.27979596  0.62184066  1
  C  C305  1  0.09419129  0.29104359  0.59413407  1
  C  C306  1  0.10176183  0.29064953  0.55202067  1
  O  O307  1  0.19568186  0.48110557  0.59134697  1
  H  H308  1  0.19623438  0.31901738  0.59587390  1
  O  O309  1  0.02145010  0.39334976  0.67894526  1
  C  C310  1  0.15063705  0.29341184  0.65300647  1
  O  O311  1  0.07688723  0.32962539  0.65070563  1
  C  C312  1  0.18455765  0.31054685  0.65967732  1
  H  H313  1  0.13240954  0.32028735  0.65628541  1
  C  C314  1  0.08187858  0.33066349  0.61306668  1
  O  O315  1  0.07352596  0.36226826  0.59316627  1
  C  C316  1  0.15024126  0.43185776  0.70666038  1
  C  C317  1  0.11757155  0.41948230  0.71616658  1
  Cu  Cu318  1  0.06506070  0.37044920  0.69114120  1
  C  C319  1  0.21064071  0.45455207  0.68812307  1
  H  H320  1  0.21576054  0.39382316  0.65453213  1
  H  H321  1  0.15737807  0.37211979  0.67093859  1
  C  C322  1  0.16700193  0.40431977  0.68157243  1
  C  C323  1  0.19855495  0.41462856  0.67278483  1
  C  C324  1  0.19616600  0.31275977  0.70112488  1
  O  O325  1  0.10840551  0.38341406  0.70383289  1
  Cu  Cu326  1  0.03008545  0.36354340  0.58406075  1
  C  C327  1  0.16246188  0.47268427  0.72148640  1
  C  C328  1  0.20472172  0.32192597  0.62700637  1
  H  H329  1  0.09505186  0.32002480  0.53401955  1
  O  O330  1  0.15758314  0.48478085  0.54745476  1
  C  C331  1  0.18730383  0.47640653  0.55759914  1
  C  C332  1  0.19309917  0.48370472  0.71400499  1
  O  O333  1  0.00657877  0.31525399  0.56785763  1
  H  H334  1  0.22535859  0.38682952  0.56793301  1
  C  C335  1  0.20853048  0.45964331  0.52325263  1
  H  H336  1  0.18078808  0.31006987  0.72716257  1
  C  C337  1  0.22726483  0.32779011  0.70682297  1
  H  H338  1  0.12201255  0.44532178  0.51920055  1
  C  C339  1  0.23712310  0.33423238  0.63365623  1
  C  C340  1  0.01301524  0.27258024  0.63912253  1
  H  H341  1  0.11228601  0.29619404  0.72963239  1
  O  O342  1  0.09959683  0.44500861  0.73614354  1
  C  C343  1  0.24197315  0.36036424  0.56190270  1
  H  H344  1  0.00140422  0.36665112  0.74003183  1
  C  C345  1  0.24108249  0.45877116  0.52817452  1
  O  O346  1  0.06280159  0.34720849  0.74688687  1
  H  H347  1  0.00709379  0.27464772  0.70360197  1
  C  C348  1  0.24556039  0.46310339  0.67694733  1
  H  H349  1  0.24486450  0.44092598  0.61217698  1
  H  H350  1  0.00316251  0.30562018  0.63383740  1
  H  H351  1  0.14789926  0.49298259  0.74259424  1
  C  C352  1  0.24671808  0.33885686  0.67390067  1
  C  C353  1  0.00745653  0.19329233  0.75130620  1
  O  O354  1  0.01564487  0.12593537  0.95894482  1
  H  H355  1  0.00183703  0.02506046  0.94817061  1
  H  H356  1  0.01095437  0.24350783  0.98810335  1
  C  C357  1  0.06376443  0.14221087  0.76044355  1
  C  C358  1  0.21397896  0.10178936  0.75226174  1
  C  C359  1  0.12837616  0.23361019  0.75653990  1
  C  C360  1  0.13874170  0.07316197  0.76017337  1
  C  C361  1  0.24347937  0.00448050  0.96729733  1
  C  C362  1  0.24628900  0.09153652  0.87273213  1
  H  H363  1  0.14377545  0.16680166  0.76980425  1
  C  C364  1  0.09259323  0.11819114  0.77371467  1
  H  H365  1  0.11614700  0.01480138  0.90474877  1
  C  C366  1  0.01004388  0.16350127  0.78318828  1
  H  H367  1  0.19603270  0.16482808  0.76954648  1
  C  C368  1  0.21155734  0.23347449  0.77133017  1
  C  C369  1  0.09043247  0.01417980  0.91195947  1
  H  H370  1  0.07889951  0.05552302  0.86255811  1
  O  O371  1  0.16749161  0.02704647  0.85338571  1
  C  C372  1  0.16542330  0.03560345  0.81599075  1
  H  H373  1  0.23066208  0.09768183  0.77769884  1
  C  C374  1  0.03762247  0.13810770  0.78802636  1
  O  O375  1  0.04837726  0.18440488  0.93659662  1
  C  C376  1  0.09858972  0.11380306  0.81668858  1
  H  H377  1  0.03675495  0.11644103  0.81527960  1
  C  C378  1  0.12029505  0.08394081  0.83126191  1
  H  H379  1  0.08309722  0.13097919  0.84139655  1
  C  C380  1  0.14012913  0.06429583  0.80173676  1
  H  H381  1  0.12366359  0.07951113  0.86472199  1
  H  H382  1  0.21971092  0.06861739  0.94309962  1
  C  C383  1  0.12613426  0.09786272  0.98698972  1
  H  H384  1  0.12564726  0.17683904  0.81297566  1
  H  H385  1  0.11526727  0.18910344  0.88547420  1
  O  O386  1  0.16815471  0.08342834  0.93894882  1
  C  C387  1  0.14152218  0.10365962  0.94573738  1
  O  O388  1  0.22337789  0.06520022  0.86648910  1
  O  O389  1  0.12833323  0.12305677  0.92000334  1
  H  H390  1  0.08589653  0.13936660  0.96676958  1
  Cu  Cu391  1  0.18362158  0.06797002  0.89004366  1
  C  C392  1  0.11658697  0.21853015  0.86556706  1
  C  C393  1  0.23310022  0.09919267  0.94384036  1
  C  C394  1  0.11995680  0.20983648  0.82478246  1
  C  C395  1  0.20755588  0.22189747  0.88859687  1
  C  C396  1  0.23507753  0.11989273  0.98050202  1
  O  O397  1  0.12196341  0.22934381  0.94700548  1
  C  C398  1  0.02870660  0.15792988  0.96893927  1
  H  H399  1  0.21427313  0.18738304  0.89559296  1
  C  C400  1  0.22021755  0.21740505  0.81121689  1
  C  C401  1  0.09557819  0.11690263  0.99018769  1
  C  C402  1  0.04387557  0.22328155  0.93518571  1
  C  C403  1  0.03764496  0.04401856  0.90224926  1
  O  O404  1  0.18404402  0.01818311  0.79033238  1
  C  C405  1  0.06964871  0.03877335  0.89017544  1
  H  H406  1  0.22147444  0.21683093  0.97273409  1
  H  H407  1  0.17885133  0.22970925  0.97891134  1
  H  H408  1  0.02187677  0.13472685  0.88809160  1
  C  C409  1  0.20251333  0.24040699  0.96612444  1
  C  C410  1  0.20753367  0.23933096  0.84871466  1
  C  C411  1  0.12361211  0.22523799  0.98535078  1
  C  C412  1  0.00866087  0.11150152  0.87061016  1
  C  C413  1  0.01378789  0.06661813  0.87626702  1
  C  C414  1  0.02733056  0.02251921  0.93929491  1
  H  H415  1  0.05975383  0.23699165  0.91255108  1
  C  C416  1  0.24928712  0.11453068  0.90974124  1
  O  O417  1  0.24431633  0.02845236  0.76089445  1
  C  C418  1  0.24450877  0.18650641  0.81485278  1
  H  H419  1  0.01352668  0.23922343  0.84555315  1
  H  H420  1  0.06443482  0.22114190  0.99840208  1
  C  C421  1  0.11721258  0.24534371  0.79683761  1
  C  C422  1  0.19845016  0.24925404  0.92020167  1
  H  H423  1  0.24868290  0.02434270  0.99503393  1
  H  H424  1  0.13313599  0.19069381  0.98658018  1
  C  C425  1  0.23690866  0.35072110  0.99322894  1
  C  C426  1  0.12787521  0.37903399  0.98328214  1
  C  C427  1  0.23862416  0.49981432  0.89593041  1
  C  C428  1  0.23668593  0.30648230  0.98246593  1
  C  C429  1  0.23799834  0.33561620  0.75085202  1
  H  H430  1  0.08323794  0.40665446  0.96597068  1
  C  C431  1  0.04713920  0.35708925  0.90186296  1
  H  H432  1  0.21214421  0.39855361  0.75584759  1
  H  H433  1  0.15636577  0.44745077  0.91467560  1
  C  C434  1  0.17363858  0.35299687  0.86374365  1
  C  C435  1  0.15777881  0.42323414  0.89006888  1
  C  C436  1  0.19959239  0.28366778  0.84183482  1
  C  C437  1  0.02637194  0.29646296  0.94638271  1
  H  H438  1  0.18479464  0.37772123  0.92389402  1
  C  C439  1  0.00500527  0.37068129  0.95739112  1
  C  C440  1  0.16200863  0.36198023  0.82423656  1
  C  C441  1  0.11115291  0.26253928  0.87801411  1
  H  H442  1  0.19142942  0.25463938  0.77000484  1
  H  H443  1  0.20273388  0.29722904  0.81179415  1
  C  C444  1  0.04242678  0.39705277  0.88587263  1
  H  H445  1  0.13875055  0.41061001  0.78706920  1
  H  H446  1  0.16312856  0.33780095  0.80039028  1
  C  C447  1  0.12520383  0.46911032  0.84153572  1
  H  H448  1  0.10566812  0.32829028  0.86155288  1
  C  C449  1  0.00367570  0.36138677  0.82521966  1
  C  C450  1  0.04547477  0.36395837  0.77451689  1
  C  C451  1  0.00849443  0.46238713  0.88566319  1
  C  C452  1  0.02536269  0.25418366  0.95970443  1
  O  O453  1  0.04442670  0.40531151  0.77489641  1
  C  C454  1  0.10986357  0.27118790  0.92211318  1
  Cu  Cu455  1  0.07923858  0.44358061  0.78529892  1
  C  C456  1  0.23040897  0.37906387  0.81297639  1
  C  C457  1  0.22502937  0.37244641  0.77155095  1
  O  O458  1  0.11984985  0.49257668  0.86963783  1
  C  C459  1  0.18498703  0.28991385  0.91085049  1
  H  H460  1  0.00083999  0.39714441  0.81981322  1
  C  C461  1  0.10811323  0.29573614  0.85017831  1
  H  H462  1  0.05858926  0.41344693  0.86277092  1
  C  C463  1  0.10846475  0.28793359  0.80838463  1
  C  C464  1  0.17356327  0.38444577  0.89434118  1
  C  C465  1  0.02654612  0.33930314  0.80197127  1
  C  C466  1  0.14492980  0.43064425  0.85130600  1
  C  C467  1  0.20672988  0.28678610  0.98465447  1
  C  C468  1  0.02863773  0.29456486  0.80889175  1
  O  O469  1  0.02303793  0.47437149  0.85412927  1
  C  C470  1  0.02570140  0.34055989  0.93502507  1
  H  H471  1  0.13485599  0.36651255  0.95292370  1
  C  C472  1  0.00874853  0.27339489  0.83589937  1
  H  H473  1  0.06612623  0.33557881  0.89201440  1
  O  O474  1  0.11337705  0.47722040  0.80587488  1
  H  H475  1  0.04646406  0.27760209  0.79275098  1
  O  O476  1  0.10030421  0.30146364  0.93896968  1
  C  C477  1  0.14817847  0.40237913  0.81718954  1
  H  H478  1  0.10661637  0.31578869  0.78718179  1
  H  H479  1  0.17407665  0.30731678  0.93498101  1
  C  C480  1  0.01716842  0.42170991  0.90318402  1
  H  H481  1  0.22117295  0.40666547  0.82863607  1
  C  C482  1  0.18603345  0.30758350  0.87307880  1
  C  C483  1  0.09996293  0.40156498  0.99069802  1
  C  C484  1  0.14495933  0.53814250  0.08796888  1
  O  O485  1  0.06579363  0.55436974  0.09127858  1
  C  C486  1  0.10540148  0.57938399  0.22604821  1
  C  C487  1  0.06437489  0.57899975  0.12525699  1
  O  O488  1  0.04774102  0.60982498  0.12716949  1
  C  C489  1  0.08475149  0.56531927  0.15796240  1
  C  C490  1  0.08560472  0.59081932  0.19399376  1
  H  H491  1  0.07153786  0.61814124  0.19833869  1
  H  H492  1  0.13146694  0.56555535  0.09865454  1
  C  C493  1  0.18000660  0.62609538  0.11665539  1
  O  O494  1  0.15260148  0.61749696  0.12590437  1
  C  C495  1  0.19148481  0.67149478  0.11144898  1
  O  O496  1  0.20064102  0.59683297  0.11124076  1
  C  C497  1  0.17481693  0.63406375  0.21178225  1
  H  H498  1  0.17101325  0.60961878  0.18676081  1
  C  C499  1  0.14757141  0.65646024  0.22283076  1
  H  H500  1  0.12534414  0.64949989  0.20588339  1
  Cu  Cu501  1  0.06035949  0.57266753  0.03791088  1
  Cu  Cu502  1  0.20527071  0.55527272  0.06652995  1
  C  C503  1  0.22280889  0.68249248  0.09737293  1
  H  H504  1  0.20454215  0.56047228  0.19267238  1
  C  C505  1  0.22737806  0.57549992  0.19546680  1
  C  C506  1  0.23231327  0.61568039  0.21602806  1
  C  C507  1  0.16802294  0.70187206  0.11884756  1
  H  H508  1  0.14377088  0.69254162  0.12849756  1
  C  C509  1  0.14427235  0.52559380  0.04724737  1
  O  O510  1  0.10532334  0.57788233  0.03183808  1
  C  C511  1  0.12283470  0.53890634  0.22184314  1
  C  C512  1  0.12402311  0.54769811  0.01795752  1
  C  C513  1  0.02366410  0.50681945  0.23711576  1
  O  O514  1  0.22228982  0.58580081  0.01856704  1
  C  C515  1  0.10434711  0.52901901  0.15163852  1
  C  C516  1  0.23053510  0.72494256  0.08925254  1
  C  C517  1  0.20396961  0.64085743  0.23262763  1
  H  H518  1  0.23837147  0.65801992  0.08773327  1
  H  H519  1  0.03103934  0.55739753  0.19170357  1
  H  H520  1  0.16201184  0.51997873  0.14685206  1
  C  C521  1  0.01501736  0.54457237  0.21488656  1
  H  H522  1  0.24484170  0.58879874  0.12243764  1
  H  H523  1  0.06842403  0.50926148  0.20150143  1
  Cu  Cu524  1  0.03894593  0.51077075  0.07783616  1
  O  O525  1  0.24289861  0.52634303  0.08239929  1
  H  H526  1  0.14495310  0.74621670  0.20261025  1
  C  C527  1  0.17721230  0.74525947  0.11330516  1
  H  H528  1  0.19813792  0.74462006  0.23517538  1
  C  C529  1  0.16197473  0.51202866  0.11458781  1
  H  H530  1  0.10291848  0.50673948  0.12457915  1
  C  C531  1  0.12001555  0.51478245  0.18574842  1
  O  O532  1  0.09484934  0.69580001  0.24680415  1
  O  O533  1  0.15553024  0.76366341  0.03148388  1
  Cu  Cu534  1  0.01195133  0.91137964  0.08462376  1
  H  H535  1  0.01012406  0.77167431  0.00654758  1
  C  C536  1  0.20770804  0.75881246  0.10151325  1
  H  H537  1  0.23520341  0.95067260  0.12685695  1
  H  H538  1  0.15862170  0.77057331  0.11393891  1
  H  H539  1  0.13994284  0.90101371  0.12577241  1
  C  C540  1  0.15629221  0.92745304  0.13494659  1
  C  C541  1  0.18838023  0.92064737  0.12688503  1
  H  H542  1  0.19325241  0.82888758  0.14533149  1
  C  C543  1  0.19823151  0.83849170  0.11391072  1
  C  C544  1  0.21023376  0.80583609  0.08706497  1
  C  C545  1  0.19858726  0.88241269  0.09976016  1
  C  C546  1  0.20390724  0.89258631  0.05851206  1
  C  C547  1  0.21114530  0.95295714  0.13739867  1
  C  C548  1  0.14695647  0.96021300  0.16156122  1
  H  H549  1  0.20031913  0.92617169  0.04752174  1
  C  C550  1  0.21666777  0.81689531  0.04682183  1
  C  C551  1  0.21405441  0.85944616  0.03212538  1
  O  O552  1  0.04454609  0.86932452  0.06903782  1
  C  C553  1  0.03618048  0.83476336  0.05139060  1
  H  H554  1  0.22695745  0.79176638  0.02724096  1
  C  C555  1  0.09295848  0.92693959  0.13367873  1
  H  H556  1  0.12270227  0.96350476  0.17055849  1
  C  C557  1  0.15897416  0.77559267  0.20747878  1
  C  C558  1  0.14391603  0.81676495  0.19721852  1
  C  C559  1  0.10090694  0.85674320  0.17305201  1
  C  C560  1  0.11155405  0.81559401  0.17876570  1
  H  H561  1  0.09922209  0.78524425  0.17066259  1
  C  C562  1  0.15963978  0.85626182  0.20653543  1
  H  H563  1  0.15226352  0.88861033  0.19476031  1
  C  C564  1  0.08695999  0.89829340  0.16597935  1
  H  H565  1  0.06285336  0.90185281  0.17887675  1
  C  C566  1  0.09717955  0.95968048  0.10574351  1
  H  H567  1  0.10383587  0.95111666  0.07447527  1
  C  C568  1  0.18813656  0.85542444  0.22876478  1
  C  C569  1  0.18651678  0.77645389  0.22976838  1
  C  C570  1  0.20132538  0.81646119  0.23928186  1
  H  H571  1  0.02603027  0.93503818  0.20318904  1
  C  C572  1  0.01744181  0.90887442  0.22201851  1
  O  O573  1  0.01444014  0.81150965  0.06670352  1
  C  C574  1  0.00487934  0.87201881  0.20214692  1
  H  H575  1  0.20369115  0.88425003  0.23199200  1
  C  C576  1  0.17077328  0.98806733  0.17620665  1
  C  C577  1  0.20301274  0.98562954  0.16416993  1
  O  O578  1  0.09586710  0.95412907  0.00385110  1
  C  C579  1  0.04689343  0.82259669  0.01075705  1
  O  O580  1  0.01779183  0.90056997  0.13859881  1
  C  C581  1  0.00708927  0.86910061  0.15843888  1
  H  H582  1  0.14178499  0.98219678  0.01751398  1
  O  O583  1  0.00327825  0.92491378  0.02776271  1
  H  H584  1  0.13854597  0.83571171  0.01134940  1
  C  C585  1  0.17220499  0.76454697  0.00305748  1
  H  H586  1  0.24940649  0.94664193  0.01988649  1
  H  H587  1  0.08105682  0.87173154  0.00424010  1
  C  C588  1  0.14906831  0.52690730  0.25041466  1
  H  H589  1  0.23476330  0.50308132  0.29714183  1
  H  H590  1  0.18981516  0.51205542  0.40101344  1
  H  H591  1  0.10346612  0.59563388  0.25544937  1
  O  O592  1  0.01793742  0.73666577  0.27613549  1
  O  O593  1  0.00589693  0.62783072  0.31615545  1
  C  C594  1  0.01386384  0.64216192  0.39861276  1
  C  C595  1  0.12180959  0.50910647  0.34694012  1
  C  C596  1  0.14901147  0.68362122  0.25789456  1
  C  C597  1  0.11920204  0.70295607  0.26817474  1
  C  C598  1  0.20481867  0.67044231  0.26615950  1
  C  C599  1  0.16646354  0.55844063  0.27506771  1
  H  H600  1  0.15594610  0.59022254  0.27730219  1
  H  H601  1  0.08149056  0.52876674  0.28780194  1
  Cu  Cu602  1  0.05208482  0.69974986  0.26505232  1
  H  H603  1  0.08779630  0.65760962  0.35671217  1
  H  H604  1  0.10203149  0.66330187  0.43398678  1
  C  C605  1  0.19445073  0.54846824  0.29530138  1
  C  C606  1  0.23752834  0.59783628  0.32837902  1
  C  C607  1  0.10716727  0.54817164  0.36106289  1
  H  H608  1  0.08412264  0.55723862  0.34659250  1
  C  C609  1  0.12167973  0.57238829  0.39130717  1
  C  C610  1  0.15111466  0.55752914  0.40488899  1
  O  O611  1  0.19494846  0.56571384  0.44623288  1
  C  C612  1  0.17789851  0.69355095  0.27860819  1
  C  C613  1  0.17012538  0.58202788  0.43391729  1
  H  H614  1  0.22692867  0.67743569  0.28072457  1
  O  O615  1  0.15996004  0.61923544  0.44666882  1
  H  H616  1  0.17924924  0.71621423  0.30407923  1
  O  O617  1  0.05329582  0.65260319  0.30118563  1
  C  C618  1  0.01860341  0.64963533  0.43962366  1
  C  C619  1  0.05082715  0.65752259  0.44963582  1
  C  C620  1  0.03860745  0.64620473  0.37082822  1
  C  C621  1  0.07711489  0.66070177  0.42300512  1
  C  C622  1  0.07002348  0.65701554  0.38159318  1
  O  O623  1  0.20506498  0.69149655  0.43309182  1
  C  C624  1  0.22719381  0.68443940  0.40769494  1
  C  C625  1  0.03073017  0.64071578  0.32689628  1
  H  H626  1  0.15723760  0.59710508  0.33905541  1
  C  C627  1  0.18109488  0.60795941  0.34075474  1
  H  H628  1  0.16989633  0.65846154  0.38429979  1
  C  C629  1  0.20541072  0.58452434  0.32310928  1
  C  C630  1  0.18901849  0.64096293  0.36817508  1
  C  C631  1  0.22086354  0.65217374  0.37726502  1
  Cu  Cu632  1  0.18856177  0.65438752  0.47642962  1
  H  H633  1  0.11022236  0.60163868  0.40542526  1
  C  C634  1  0.24502705  0.63187060  0.35238919  1
  H  H635  1  0.12799826  0.74019655  0.40670449  1
  O  O636  1  0.11629856  0.72666366  0.30055691  1
  Cu  Cu637  1  0.23768668  0.57952447  0.43974455  1
  C  C638  1  0.16632617  0.51907662  0.39097262  1
  C  C639  1  0.21095823  0.50850632  0.28555822  1
  O  O640  1  0.07856551  0.54185954  0.46008819  1
  Cu  Cu641  1  0.03756765  0.54315023  0.47743765  1
  O  O642  1  0.24735720  0.58759262  0.49700698  1
  C  C643  1  0.09316866  0.51219757  0.47802388  1
  C  C644  1  0.05374904  0.66007601  0.49594570  1
  C  C645  1  0.00044083  0.88092520  0.47830133  1
  C  C646  1  0.06152374  0.99535528  0.33158033  1
  C  C647  1  0.09949104  0.99487001  0.38640765  1
  C  C648  1  0.13273768  0.99798114  0.40044080  1
  H  H649  1  0.07153649  0.75125655  0.43593491  1
  C  C650  1  0.03756611  0.98457566  0.36003452  1
  C  C651  1  0.24669312  0.76136238  0.49723302  1
  C  C652  1  0.06891528  0.81532838  0.41052924  1
  H  H653  1  0.00031843  0.80815528  0.47508757  1
  H  H654  1  0.00819643  0.80996622  0.37406485  1
  C  C655  1  0.00504121  0.98229716  0.34529242  1
  C  C656  1  0.23814465  0.99442586  0.44276785  1
  H  H657  1  0.03298513  0.93467233  0.28129320  1
  O  O658  1  0.17734596  0.76699247  0.38374573  1
  Cu  Cu659  1  0.20132569  0.76892909  0.43221530  1
  O  O660  1  0.22247612  0.77799240  0.48190467  1
  H  H661  1  0.02319750  0.89779946  0.39509198  1
  O  O662  1  0.16250211  0.75960585  0.46598980  1
  C  C663  1  0.11479838  0.77153647  0.40321691  1
  C  C664  1  0.04205674  0.82680907  0.43924989  1
  C  C665  1  0.24109655  0.99771230  0.36877417  1
  C  C666  1  0.23459338  0.81164432  0.25613315  1
  O  O667  1  0.17611904  0.82937943  0.35291156  1
  C  C668  1  0.01530468  0.76186550  0.30564544  1
  Cu  Cu669  1  0.07847542  0.75237007  0.31246517  1
  O  O670  1  0.00540888  0.76598850  0.43283462  1
  C  C671  1  0.12808245  0.80583901  0.38272787  1
  C  C672  1  0.20487793  0.96143580  0.49174251  1
  H  H673  1  0.06880573  0.87890676  0.37648126  1
  O  O674  1  0.24568761  0.77665163  0.26517492  1
  C  C675  1  0.08391739  0.77488772  0.41791043  1
  C  C676  1  0.15907966  0.99568695  0.41403894  1
  H  H677  1  0.15875638  0.91321485  0.45800907  1
  C  C678  1  0.01053299  0.87037628  0.28387720  1
  C  C679  1  0.15791016  0.84722470  0.47688012  1
  C  C680  1  0.02297057  0.90752887  0.26295752  1
  C  C681  1  0.07583495  0.97965514  0.41298332  1
  H  H682  1  0.18412243  0.99312581  0.42583289  1
  O  O683  1  0.04011313  0.77826745  0.32079249  1
  C  C684  1  0.03415151  0.89108379  0.47888530  1
  H  H685  1  0.15370217  0.83366259  0.44652556  1
  H  H686  1  0.08047635  0.97087699  0.44495133  1
  C  C687  1  0.01701432  0.87486759  0.32845759  1
  O  O688  1  0.24994054  0.84785142  0.26263043  1
  H  H689  1  0.07951104  0.87114752  0.45068572  1
  C  C690  1  0.11385126  0.84509902  0.37241199  1
  C  C691  1  0.08263769  0.84917504  0.38521434  1
  H  H692  1  0.04365242  0.92099405  0.49194143  1
  H  H693  1  0.20742638  0.93486355  0.47098452  1
  C  C694  1  0.05423414  0.86409249  0.45722146  1
  C  C695  1  0.01546609  0.80109893  0.44794160  1
  H  H696  1  0.12640518  0.87201125  0.35460424  1
  H  H697  1  0.02750668  0.96581609  0.42294469  1
  C  C698  1  0.04471077  0.97543592  0.40076089  1
  C  C699  1  0.16405022  0.89037821  0.48409957  1
  C  C700  1  0.02017335  0.88764344  0.36275293  1
  C  C701  1  0.16244850  0.80123028  0.36964804  1
  H  H702  1  0.05029576  0.65939124  0.61729165  1
  H  H703  1  0.11823065  0.60276553  0.65832560  1
  C  C704  1  0.08001874  0.57652466  0.69537770  1
  C  C705  1  0.09476289  0.59119920  0.65889673  1
  C  C706  1  0.07689604  0.58133924  0.62393945  1
  C  C707  1  0.09071925  0.59392184  0.58253596  1
  C  C708  1  0.17465777  0.61037014  0.63269503  1
  H  H709  1  0.11412437  0.60651313  0.58925010  1
  H  H710  1  0.09171124  0.56776321  0.55922785  1
  C  C711  1  0.05211252  0.66064647  0.58352055  1
  C  C712  1  0.04596717  0.56393767  0.62209276  1
  C  C713  1  0.04866918  0.55937091  0.69560280  1
  C  C714  1  0.17448003  0.63080195  0.66985360  1
  H  H715  1  0.03479426  0.55985857  0.59150388  1
  C  C716  1  0.07140097  0.63125117  0.56254811  1
  H  H717  1  0.19034896  0.58233236  0.62766000  1
  C  C718  1  0.15729254  0.62950803  0.60173562  1
  C  C719  1  0.15151251  0.66243960  0.68184934  1
  C  C720  1  0.15814221  0.61360599  0.55877393  1
  C  C721  1  0.13348871  0.68062531  0.64928196  1
  C  C722  1  0.03532810  0.69122456  0.55935452  1
  H  H723  1  0.19016347  0.61772894  0.69352692  1
  C  C724  1  0.13683974  0.66474504  0.61013509  1
  H  H725  1  0.12431729  0.67845169  0.58493500  1
  O  O726  1  0.16927157  0.57724008  0.55179193  1
  C  C727  1  0.07318611  0.63130491  0.51954019  1
  H  H728  1  0.11857532  0.71017577  0.65614558  1
  C  C729  1  0.01807544  0.72247873  0.58568994  1
  O  O730  1  0.14474880  0.63602407  0.53162880  1
  C  C731  1  0.03188250  0.55135416  0.65978973  1
  Cu  Cu732  1  0.15314553  0.69007200  0.52987504  1
  H  H733  1  0.14290952  0.56330726  0.71387160  1
  H  H734  1  0.03904570  0.54909195  0.72450123  1
  H  H735  1  0.23456250  0.68134456  0.57309446  1
  Cu  Cu736  1  0.14644311  0.53626665  0.52478281  1
  C  C737  1  0.23825614  0.61759525  0.51942401  1
  C  C738  1  0.03782698  0.69352507  0.51575317  1
  C  C739  1  0.23892615  0.64983511  0.58786722  1
  C  C740  1  0.01620457  0.71619668  0.62833235  1
  H  H741  1  0.02343437  0.68567516  0.64402085  1
  O  O742  1  0.16292479  0.74727655  0.53135134  1
  C  C743  1  0.24237766  0.61420855  0.56318581  1
  C  C744  1  0.15010945  0.68232340  0.72368361  1
  C  C745  1  0.16753507  0.72089198  0.72298118  1
  C  C746  1  0.09631663  0.57817364  0.73647746  1
  C  C747  1  0.12949263  0.57290548  0.73949933  1
  H  H748  1  0.18353399  0.72714871  0.69556504  1
  H  H749  1  0.20254783  0.51562162  0.72289118  1
  H  H750  1  0.23288975  0.65333558  0.71802127  1
  H  H751  1  0.08833710  0.60932940  0.50190392  1
  H  H752  1  0.02422806  0.72047088  0.50045502  1
  O  O753  1  0.10443678  0.52058600  0.51294213  1
  H  H754  1  0.24642599  0.67486308  0.64866135  1
  C  C755  1  0.24608214  0.64565161  0.62895713  1
  C  C756  1  0.24927586  0.62580861  0.72339843  1
  O  O757  1  0.22751436  0.65220123  0.50377357  1
  C  C758  1  0.22502809  0.76588122  0.60620838  1
  C  C759  1  0.22501966  0.77253479  0.56380211  1
  H  H760  1  0.10136072  0.99218397  0.58465194  1
  H  H761  1  0.20391974  0.77565749  0.62505486  1
  H  H762  1  0.20428578  0.78976447  0.54880813  1
  H  H763  1  0.11543530  0.83221327  0.69332110  1
  O  O764  1  0.14249475  0.96784167  0.65265892  1
  O  O765  1  0.10599976  0.89272274  0.65218565  1
  O  O766  1  0.06118761  0.92743525  0.66361992  1
  C  C767  1  0.08278817  0.90189028  0.67461789  1
  Cu  Cu768  1  0.04512361  0.92488425  0.61163177  1
  O  O769  1  0.05930631  0.91665034  0.55984724  1
  C  C770  1  0.07603815  0.87429750  0.70994733  1
  O  O771  1  0.18798372  0.90898155  0.67101507  1
  C  C772  1  0.20188297  0.88052604  0.64662322  1
  C  C773  1  0.22444362  0.89792055  0.61481348  1
  O  O774  1  0.19728350  0.84281899  0.65171709  1
  Cu  Cu775  1  0.14620077  0.90976283  0.66179755  1
  H  H776  1  0.21865018  0.96515639  0.63867152  1
  C  C777  1  0.09655848  0.83998259  0.71587709  1
  C  C778  1  0.23017895  0.94242209  0.61573170  1
  C  C779  1  0.08386455  0.93540772  0.54515860  1
  O  O780  1  0.10999466  0.92021013  0.54673158  1
  H  H781  1  0.16293805  0.98703265  0.57827398  1
  C  C782  1  0.17678242  0.99015684  0.55127909  1
  C  C783  1  0.08055336  0.97745509  0.52174840  1
  H  H784  1  0.17818330  0.89471788  0.58293319  1
  C  C785  1  0.17319202  0.87922242  0.55396011  1
  H  H786  1  0.16727121  0.81741325  0.57869091  1
  C  C787  1  0.16646132  0.83582592  0.55064819  1
  H  H788  1  0.03763882  0.91685771  0.72905146  1
  C  C789  1  0.05089236  0.88641859  0.73647575  1
  H  H790  1  0.02862879  0.96934355  0.52395423  1
  C  C791  1  0.17373825  0.90979608  0.52160216  1
  C  C792  1  0.18519190  0.95562300  0.52579137  1
  C  C793  1  0.12166650  0.99080543  0.67190436  1
  C  C794  1  0.24143378  0.87178535  0.58730763  1
  O  O795  1  0.00118567  0.94261025  0.61255478  1
  C  C796  1  0.00609052  0.76133170  0.56740436  1
  O  O797  1  0.12513864  0.99682232  0.70798571  1
  H  H798  1  0.20942900  0.78133407  0.70354147  1
  H  H799  1  0.23989125  0.83697218  0.58998216  1
  C  C800  1  0.04912664  0.99149085  0.51595999  1
  H  H801  1  0.24184647  0.84553975  0.71796499  1
  H  H802  1  0.01245862  0.77156530  0.53642725  1
  C  C803  1  0.20161666  0.80381448  0.72746209  1
  C  C804  1  0.22017222  0.84044353  0.73390999  1
  H  H805  1  0.13285273  0.98826381  0.50908645  1
  C  C806  1  0.24964373  0.75702797  0.54126790  1
  C  C807  1  0.16008489  0.81959386  0.51107957  1
  C  C808  1  0.16098162  0.77404948  0.50231089  1
  H  H809  1  0.11739446  0.63965637  0.75977315  1
  H  H810  1  0.23069322  0.72293225  0.76625512  1
  C  C811  1  0.00128469  0.67895042  0.88779116  1
  C  C812  1  0.24305983  0.52869156  0.96430638  1
  H  H813  1  0.20089999  0.67088752  0.76566617  1
  C  C814  1  0.00821683  0.62607857  0.94103251  1
  O  O815  1  0.01176078  0.61292147  0.81317847  1
  C  C816  1  0.13192937  0.66965131  0.75835617  1
  H  H817  1  0.20583343  0.53757541  0.85535982  1
  H  H818  1  0.05072455  0.59306792  0.76972621  1
  C  C819  1  0.13232666  0.69628808  0.79252552  1
  C  C820  1  0.21439398  0.66359177  0.79479947  1
  H  H821  1  0.09323201  0.66311706  0.82269579  1
  C  C822  1  0.07708370  0.58899842  0.77127224  1
  C  C823  1  0.14377852  0.57885920  0.77662953  1
  H  H824  1  0.16922535  0.57389804  0.77730920  1
  C  C825  1  0.21583111  0.67441651  0.86555140  1
  H  H826  1  0.07694515  0.59644677  0.83700055  1
  C  C827  1  0.05427627  0.65648234  0.90454628  1
  C  C828  1  0.04135969  0.62720434  0.93208121  1
  H  H829  1  0.08015871  0.65989734  0.90206944  1
  C  C830  1  0.09142179  0.58908278  0.80920665  1
  C  C831  1  0.11093337  0.68797175  0.83049493  1
  C  C832  1  0.12463180  0.58473341  0.81042538  1
  Cu  Cu833  1  0.12445334  0.56823281  0.93368055  1
  C  C834  1  0.13913118  0.58974480  0.85159050  1
  O  O835  1  0.16759139  0.58824199  0.85449799  1
  O  O836  1  0.12235770  0.59606277  0.88447398  1
  O  O837  1  0.09179534  0.60962276  0.95221921  1
  H  H838  1  0.12609770  0.67342462  0.85487683  1
  C  C839  1  0.06214292  0.60138345  0.95696788  1
  Cu  Cu840  1  0.19223300  0.68223671  0.98849120  1
  O  O841  1  0.18847181  0.62077005  0.98056350  1
  C  C842  1  0.22066084  0.56040352  0.95455890  1
  C  C843  1  0.20967097  0.59243872  0.98347815  1
  H  H844  1  0.17642615  0.69505946  0.82547499  1
  C  C845  1  0.03508169  0.68461283  0.88288829  1
  H  H846  1  0.04587716  0.70872441  0.86123690  1
  C  C847  1  0.19920129  0.69200630  0.90233882  1
  O  O848  1  0.21331890  0.69026916  0.93873187  1
  C  C849  1  0.19877508  0.67924101  0.82892964  1
  H  H850  1  0.09450506  0.72221747  0.90927174  1
  C  C851  1  0.09312997  0.73037621  0.84231236  1
  O  O852  1  0.17414299  0.70819872  0.89889679  1
  H  H853  1  0.19050168  0.59054905  0.90715617  1
  C  C854  1  0.20850062  0.56464389  0.91398783  1
  O  O855  1  0.12418610  0.53649544  0.98193422  1
  C  C856  1  0.21769987  0.53454496  0.88494086  1
  C  C857  1  0.14476992  0.73822391  0.79127373  1
  O  O858  1  0.05128964  0.57708338  0.98486586  1
  C  C859  1  0.16177074  0.74930659  0.75624609  1
  C  C860  1  0.08766731  0.74231444  0.88318213  1
  H  H861  1  0.02665984  0.74663616  0.93815130  1
  C  C862  1  0.24165594  0.63578663  0.79761407  1
  C  C863  1  0.24270319  0.64967222  0.87188418  1
  Cu  Cu864  1  0.00553281  0.51128055  0.81252791  1
  H  H865  1  0.08149227  0.74077781  0.77799468  1
  H  H866  1  0.02102334  0.74344322  0.83589994  1
  O  O867  1  0.19563363  0.73801894  0.99918558  1
  H  H868  1  0.21267737  0.89334021  0.97561985  1
  C  C869  1  0.15061359  0.86821759  0.95329107  1
  H  H870  1  0.01819952  0.79832207  0.78469396  1
  C  C871  1  0.16732361  0.86407748  0.91477681  1
  C  C872  1  0.20470142  0.95803445  0.92576813  1
  C  C873  1  0.09293754  0.81423210  0.75009312  1
  H  H874  1  0.14155107  0.75991080  0.81835240  1
  C  C875  1  0.08149945  0.75282889  0.80881713  1
  H  H876  1  0.04060664  0.97829516  0.98707395  1
  C  C877  1  0.17119394  0.80020202  0.97044530  1
  C  C878  1  0.04860403  0.99766381  0.96065108  1
  C  C879  1  0.08064392  0.99438376  0.94801626  1
  H  H880  1  0.00656722  0.84724472  0.84398463  1
  C  C881  1  0.06331535  0.80937609  0.85675881  1
  C  C882  1  0.19024788  0.79681559  0.93562210  1
  C  C883  1  0.04845109  0.85972626  0.77075658  1
  H  H884  1  0.22665988  0.83882113  0.97207382  1
  C  C885  1  0.07129348  0.84263388  0.99037094  1
  H  H886  1  0.20711401  0.76894676  0.93015937  1
  C  C887  1  0.06835596  0.82407061  0.77711197  1
  C  C888  1  0.17762012  0.79307234  0.75730884  1
  O  O889  1  0.21528784  0.94008707  0.79232997  1
  H  H890  1  0.01932731  0.89554263  0.96932418  1
  Cu  Cu891  1  0.22389020  0.99868343  0.80507603  1
  H  H892  1  0.10043806  0.84240738  0.93502278  1
  C  C893  1  0.07993488  0.83101582  0.95025655  1
  H  H894  1  0.15226662  0.94822684  0.83687118  1
  H  H895  1  0.03007342  0.86667478  0.79298153  1
  H  H896  1  0.14663975  0.81888381  0.80265906  1
  C  C897  1  0.18218845  0.86507559  0.78722825  1
  C  C898  1  0.22602935  0.91129190  0.76898132  1
  H  H899  1  0.05001332  0.83769714  0.86558244  1
  C  C900  1  0.16225925  0.89186908  0.87950400  1
  C  C901  1  0.20912205  0.87029311  0.76319194  1
  C  C902  1  0.21399404  0.98111241  0.96200328  1
  C  C903  1  0.10389571  0.97149304  0.97371070  1
  H  H904  1  0.13489370  0.89601047  0.95742229  1
  O  O905  1  0.13953076  0.97317337  0.96126394  1
  H  H906  1  0.20196745  0.82778597  0.88086063  1
  C  C907  1  0.22522641  0.95988160  0.89404284  1
  H  H908  1  0.17329940  0.88913946  0.80865062  1
  C  C909  1  0.03070265  0.78800727  0.99128572  1
  C  C910  1  0.07051602  0.79688466  0.81625545  1
  C  C911  1  0.18880791  0.83027690  0.90837243  1
  H  H912  1  0.01431263  0.87611304  0.89465490  1
  H  H913  1  0.11046730  0.78809071  0.75786995  1
  C  C914  1  0.07197607  0.78257221  0.88941582  1
  C  C915  1  0.15617534  0.92103790  0.85659522  1
  C  C916  1  0.06448050  0.79594054  0.93363551  1
  H  H917  1  0.21778054  0.94313796  0.86624227  1
  H  H918  1  0.18147855  0.94276286  0.92240711  1
  C  C919  1  0.16661073  0.82598886  0.78335460  1
  C  C920  1  0.22855452  0.86910958  0.99048106  1
  C  C921  1  0.15173384  0.83486663  0.98091306  1
  C  C922  1  0.03786907  0.77544517  0.95223174  1
  C  C923  1  0.19111287  0.98319433  0.99586694  1
  C  C924  1  0.15831152  0.97833506  0.99060758  1
  H  H925  1  0.35650490  0.07928427  0.13341215  1
  C  C926  1  0.37304637  0.10107104  0.14626913  1
  C  C927  1  0.38718569  0.13529321  0.12524981  1
  C  C928  1  0.37953438  0.13890454  0.08291544  1
  O  O929  1  0.39066862  0.16999518  0.06250715  1
  O  O930  1  0.36127034  0.11079340  0.06823347  1
  C  C931  1  0.40799328  0.16575333  0.14481452  1
  H  H932  1  0.41720182  0.19254891  0.12805629  1
  Cu  Cu933  1  0.37343322  0.05458684  0.05469761  1
  Cu  Cu934  1  0.32980715  0.20462971  0.11519786  1
  C  C935  1  0.41599422  0.16152346  0.18462241  1
  O  O936  1  0.31197251  0.15399124  0.12995578  1
  C  C937  1  0.28140731  0.14809288  0.13277380  1
  H  H938  1  0.43272839  0.18045099  0.19902954  1
  C  C939  1  0.38074670  0.09763458  0.18685325  1
  C  C940  1  0.40463534  0.12251194  0.20618279  1
  Cu  Cu941  1  0.28393691  0.19743703  0.19728154  1
  H  H942  1  0.36768034  0.07290309  0.20431596  1
  O  O943  1  0.26579535  0.17471104  0.15272554  1
  H  H944  1  0.31363671  0.08361751  0.08945088  1
  C  C945  1  0.26773039  0.11160711  0.11266444  1
  O  O946  1  0.42682304  0.04492550  0.14952421  1
  Cu  Cu947  1  0.44472873  0.06457067  0.10591704  1
  C  C948  1  0.28728117  0.08082407  0.09150178  1
  C  C949  1  0.27306730  0.04705809  0.07118668  1
  H  H950  1  0.28767880  0.02281042  0.05347112  1
  C  C951  1  0.46337571  0.15300148  0.03341911  1
  H  H952  1  0.44539843  0.14604854  0.05539900  1
  H  H953  1  0.41329275  0.04755311  0.23360733  1
  O  O954  1  0.43904713  0.02630197  0.06326410  1
  O  O955  1  0.47971899  0.10151998  0.10018373  1
  O  O956  1  0.33101424  0.22533579  0.16788375  1
  C  C957  1  0.26114653  0.20585099  0.05031108  1
  Cu  Cu958  1  0.36903097  0.18987126  0.01431718  1
  O  O959  1  0.34394722  0.04867843  0.00946349  1
  H  H960  1  0.26340270  0.20232434  0.08330791  1
  H  H961  1  0.29976060  0.02916695  0.18396210  1
  C  C962  1  0.42401485  0.00609075  0.16533191  1
  C  C963  1  0.45850097  0.17838882  0.00007405  1
  O  O964  1  0.29582557  0.16995904  0.24371342  1
  H  H965  1  0.48265659  0.02827497  0.14581247  1
  C  C966  1  0.49374742  0.13092621  0.03620463  1
  C  C967  1  0.49982855  0.10399080  0.07118573  1
  H  H968  1  0.48719009  0.01476211  0.21895776  1
  C  C969  1  0.25558772  0.18048826  0.02236861  1
  O  O970  1  0.37835536  0.23748425  0.19099143  1
  O  O971  1  0.36940588  0.24630017  0.03411199  1
  O  O972  1  0.26278065  0.24790827  0.20981519  1
  O  O973  1  0.48463724  0.03974401  0.23578572  1
  O  O974  1  0.39205206  0.00344741  0.04542523  1
  O  O975  1  0.27716594  0.25508852  0.05271124  1
  H  H976  1  0.25347487  0.43713474  0.01125511  1
  C  C977  1  0.49869406  0.42571800  0.02781224  1
  H  H978  1  0.49001670  0.28053804  0.15714752  1
  H  H979  1  0.41887190  0.26000073  0.24430470  1
  C  C980  1  0.35342859  0.25124688  0.18208596  1
  O  O981  1  0.34944805  0.25513732  0.09578597  1
  H  H982  1  0.41844783  0.27876057  0.02068959  1
  C  C983  1  0.37112180  0.26355851  0.06855977  1
  C  C984  1  0.47218517  0.39945801  0.14378061  1
  H  H985  1  0.45354548  0.28889521  0.20687814  1
  H  H986  1  0.29903458  0.33768670  0.05911638  1
  C  C987  1  0.42302478  0.29324092  0.05055972  1
  C  C988  1  0.39896007  0.28711707  0.07947147  1
  C  C989  1  0.44892389  0.31905430  0.05890000  1
  H  H990  1  0.43156774  0.33966666  0.15919346  1
  H  H991  1  0.38307729  0.29924411  0.14169582  1
  C  C992  1  0.40197972  0.30552047  0.11883882  1
  H  H993  1  0.30061435  0.28420604  0.15728161  1
  C  C994  1  0.34353039  0.29829773  0.18770267  1
  C  C995  1  0.32056896  0.37688079  0.20615494  1
  C  C996  1  0.30392304  0.42017147  0.21276451  1
  C  C997  1  0.31368554  0.30861854  0.17279860  1
  C  C998  1  0.30293212  0.35080718  0.17923023  1
  C  C999  1  0.36384727  0.32431840  0.21128597  1
  C  C1000  1  0.34931640  0.36333198  0.22283005  1
  C  C1001  1  0.42815622  0.33054794  0.12771238  1
  H  H1002  1  0.27270958  0.39443095  0.10437378  1
  H  H1003  1  0.44895144  0.40961426  0.15541813  1
  C  C1004  1  0.45016216  0.34020354  0.09700544  1
  C  C1005  1  0.28974473  0.44072331  0.17967849  1
  H  H1006  1  0.29227762  0.43149235  0.14941530  1
  H  H1007  1  0.28221102  0.36365686  0.16303231  1
  C  C1008  1  0.27814307  0.32990820  0.07866898  1
  C  C1009  1  0.26697051  0.28557086  0.07720573  1
  C  C1010  1  0.26449442  0.36000577  0.10314692  1
  H  H1011  1  0.38730228  0.31306583  0.22278156  1
  C  C1012  1  0.46972586  0.30486343  0.22868633  1
  H  H1013  1  0.46851181  0.32685009  0.03627318  1
  C  C1014  1  0.47699303  0.36842880  0.11159801  1
  H  H1015  1  0.48294509  0.42720377  0.05459090  1
  H  H1016  1  0.35034666  0.44941999  0.21979558  1
  C  C1017  1  0.37485989  0.45946010  0.21075208  1
  Cu  Cu1018  1  0.39697876  0.47675079  0.03725892  1
  C  C1019  1  0.43004114  0.48090782  0.22572010  1
  C  C1020  1  0.37976946  0.46957947  0.16993711  1
  O  O1021  1  0.43804801  0.46636070  0.02468384  1
  H  H1022  1  0.28556058  0.31410523  0.23161240  1
  H  H1023  1  0.30460955  0.46986608  0.01418207  1
  C  C1024  1  0.30292984  0.43665850  0.00314866  1
  H  H1025  1  0.36247216  0.38583444  0.24210829  1
  C  C1026  1  0.27106958  0.47753956  0.19271658  1
  C  C1027  1  0.27331385  0.41625617  0.00444311  1
  C  C1028  1  0.45583070  0.49318982  0.00867174  1
  C  C1029  1  0.41318732  0.49970983  0.11690715  1
  H  H1030  1  0.35865117  0.46979815  0.14890000  1
  C  C1031  1  0.40157654  0.46180919  0.23861841  1
  H  H1032  1  0.49349914  0.41401092  0.24266845  1
  C  C1033  1  0.40992360  0.48953409  0.15895349  1
  C  C1034  1  0.43423242  0.49674897  0.18660980  1
  O  O1035  1  0.39264198  0.49002098  0.09052032  1
  H  H1036  1  0.45107742  0.48705888  0.24536664  1
  C  C1037  1  0.26877405  0.49182728  0.23310728  1
  O  O1038  1  0.36774072  0.47267915  0.00074490  1
  C  C1039  1  0.41179856  0.11451200  0.25064601  1
  H  H1040  1  0.35521811  0.00302977  0.25670829  1
  H  H1041  1  0.34098873  0.14532527  0.26578214  1
  H  H1042  1  0.25909111  0.06390977  0.29470941  1
  C  C1043  1  0.28110221  0.13712475  0.25687556  1
  O  O1044  1  0.25103272  0.13159598  0.25359619  1
  C  C1045  1  0.41412317  0.06978365  0.25860145  1
  H  H1046  1  0.47093031  0.09778754  0.27487168  1
  C  C1047  1  0.49365181  0.11560231  0.27714613  1
  H  H1048  1  0.29340394  0.01002602  0.33007606  1
  H  H1049  1  0.48191667  0.04861190  0.32680874  1
  H  H1050  1  0.29524575  0.01339837  0.41369630  1
  H  H1051  1  0.40417914  0.17965282  0.27376810  1
  H  H1052  1  0.47288938  0.17002572  0.30693797  1
  C  C1053  1  0.42487801  0.00583008  0.30626919  1
  H  H1054  1  0.45723792  0.04010275  0.39953207  1
  C  C1055  1  0.48075154  0.01478724  0.33883705  1
  C  C1056  1  0.43423850  0.02704735  0.45831926  1
  C  C1057  1  0.29855411  0.10794213  0.28336977  1
  C  C1058  1  0.35814140  0.02318524  0.34907043  1
  C  C1059  1  0.40471383  0.02938630  0.39352165  1
  C  C1060  1  0.30412550  0.04038505  0.31673765  1
  C  C1061  1  0.34951018  0.08814728  0.30286124  1
  C  C1062  1  0.33181208  0.11761193  0.28235992  1
  H  H1063  1  0.43397471  0.08577341  0.41420367  1
  C  C1064  1  0.43384605  0.05077640  0.41537115  1
  H  H1065  1  0.30214587  0.08791215  0.37919000  1
  H  H1066  1  0.37683092  0.08488214  0.36830995  1
  Cu  Cu1067  1  0.31642778  0.21092915  0.33987043  1
  O  O1068  1  0.32040909  0.16118356  0.37260169  1
  C  C1069  1  0.28345894  0.07125778  0.30077066  1
  C  C1070  1  0.32173910  0.11539447  0.43241383  1
  C  C1071  1  0.32306429  0.15696347  0.41022666  1
  C  C1072  1  0.41215196  0.14738114  0.28047711  1
  C  C1073  1  0.41847417  0.13133421  0.32087801  1
  C  C1074  1  0.42765461  0.08748418  0.32764764  1
  C  C1075  1  0.42392814  0.05490479  0.29703209  1
  C  C1076  1  0.41263203  0.16664428  0.35151910  1
  C  C1077  1  0.41473783  0.21088394  0.34039690  1
  C  C1078  1  0.40709532  0.15666740  0.39342135  1
  H  H1079  1  0.43229650  0.07504999  0.35776185  1
  H  H1080  1  0.40501363  0.12187126  0.40264452  1
  C  C1081  1  0.40079605  0.18866297  0.42183418  1
  H  H1082  1  0.39718278  0.17896678  0.45343491  1
  O  O1083  1  0.33065665  0.18718838  0.43408966  1
  C  C1084  1  0.30944336  0.04038854  0.42681367  1
  C  C1085  1  0.31086719  0.07949557  0.40829044  1
  C  C1086  1  0.33609270  0.05140261  0.32122095  1
  C  C1087  1  0.37942226  0.04929216  0.37180009  1
  H  H1088  1  0.37494723  0.09213203  0.30565040  1
  C  C1089  1  0.32118068  0.03673186  0.46702654  1
  O  O1090  1  0.27192655  0.21458363  0.35214647  1
  C  C1091  1  0.33170512  0.11330769  0.47206701  1
  C  C1092  1  0.40878880  0.03764429  0.48461869  1
  C  C1093  1  0.40188442  0.23134165  0.41005081  1
  H  H1094  1  0.38850767  0.05907314  0.47613420  1
  H  H1095  1  0.41911884  0.21932201  0.30835602  1
  Cu  Cu1096  1  0.31511862  0.24383375  0.43874730  1
  C  C1097  1  0.33385604  0.07094816  0.48982988  1
  H  H1098  1  0.34022087  0.14283982  0.48672936  1
  C  C1099  1  0.49430968  0.15413723  0.29583138  1
  H  H1100  1  0.36334052  0.24936402  0.25862994  1
  C  C1101  1  0.40923609  0.24218546  0.36930183  1
  C  C1102  1  0.26397537  0.24212058  0.37774525  1
  H  H1103  1  0.46472524  0.49120906  0.31083006  1
  C  C1104  1  0.42548008  0.31519868  0.28329875  1
  C  C1105  1  0.37663353  0.27222720  0.27666091  1
  C  C1106  1  0.47479496  0.48530069  0.34083893  1
  H  H1107  1  0.32209908  0.41972025  0.27227034  1
  C  C1108  1  0.25842086  0.44629214  0.49276487  1
  O  O1109  1  0.45131163  0.29167118  0.49790049  1
  C  C1110  1  0.30460890  0.43685181  0.25336679  1
  C  C1111  1  0.42829721  0.44159014  0.34508038  1
  C  C1112  1  0.26997388  0.32259441  0.25689395  1
  O  O1113  1  0.28267458  0.33088902  0.44540754  1
  C  C1114  1  0.30008982  0.40445436  0.35103349  1
  C  C1115  1  0.49732503  0.46206924  0.41651047  1
  C  C1116  1  0.25580543  0.35783319  0.31945247  1
  H  H1117  1  0.31727135  0.39128113  0.32821888  1
  Cu  Cu1118  1  0.38677249  0.34959559  0.46742150  1
  H  H1119  1  0.41319350  0.27631931  0.35969696  1
  O  O1120  1  0.31504792  0.25787040  0.30540347  1
  C  C1121  1  0.31199071  0.43323344  0.38123238  1
  O  O1122  1  0.28514231  0.26101441  0.39853852  1
  C  C1123  1  0.39665509  0.26691303  0.43844634  1
  H  H1124  1  0.46212982  0.41147989  0.41947007  1
  O  O1125  1  0.31318891  0.28453572  0.47517880  1
  C  C1126  1  0.47233779  0.43825383  0.40215500  1
  C  C1127  1  0.33029181  0.29172897  0.31809391  1
  C  C1128  1  0.27646940  0.35244786  0.28599654  1
  C  C1129  1  0.40875138  0.27910238  0.26878321  1
  H  H1130  1  0.30367175  0.46047490  0.44318681  1
  C  C1131  1  0.41116127  0.34075190  0.31494812  1
  C  C1132  1  0.42675099  0.44316470  0.30206733  1
  C  C1133  1  0.26142051  0.42760493  0.41669461  1
  H  H1134  1  0.28373866  0.44068702  0.49571231  1
  C  C1135  1  0.40059562  0.43796357  0.36828240  1
  C  C1136  1  0.28777613  0.47389761  0.26524882  1
  H  H1137  1  0.26366000  0.46147825  0.34710739  1
  O  O1138  1  0.39187287  0.25481369  0.47474859  1
  Cu  Cu1139  1  0.29944310  0.31781116  0.39507959  1
  C  C1140  1  0.34348701  0.45825518  0.37510814  1
  C  C1141  1  0.45868738  0.32252672  0.26665075  1
  O  O1142  1  0.36220544  0.39735226  0.46229880  1
  H  H1143  1  0.36796632  0.34990735  0.35102880  1
  O  O1144  1  0.39789382  0.30636517  0.42898980  1
  H  H1145  1  0.29909641  0.37108925  0.28203929  1
  C  C1146  1  0.37135410  0.44437803  0.34714615  1
  C  C1147  1  0.46021642  0.45237407  0.36418458  1
  C  C1148  1  0.26748556  0.39023069  0.35052020  1
  H  H1149  1  0.40261018  0.43781333  0.40061776  1
  C  C1150  1  0.36288121  0.43582584  0.48147144  1
  C  C1151  1  0.39716229  0.45083685  0.28281808  1
  H  H1152  1  0.44763487  0.44309684  0.28289114  1
  C  C1153  1  0.47816162  0.34983784  0.28996416  1
  H  H1154  1  0.35624513  0.44942848  0.40428607  1
  O  O1155  1  0.31913623  0.31651832  0.34429653  1
  C  C1156  1  0.36327125  0.29727576  0.30656732  1
  C  C1157  1  0.38059459  0.33124482  0.32705578  1
  C  C1158  1  0.29357093  0.44213953  0.41608708  1
  H  H1159  1  0.34693311  0.46502419  0.29146827  1
  C  C1160  1  0.28994638  0.31112179  0.47881581  1
  C  C1161  1  0.36823630  0.45277380  0.30502450  1
  O  O1162  1  0.38104161  0.46140052  0.46739755  1
  H  H1163  1  0.46932594  0.36320666  0.32020810  1
  H  H1164  1  0.42328806  0.36897377  0.32924009  1
  C  C1165  1  0.27771594  0.49180412  0.34169483  1
  H  H1166  1  0.33683831  0.49292319  0.37172133  1
  C  C1167  1  0.33465566  0.03224222  0.58799026  1
  C  C1168  1  0.38540828  0.03404925  0.55432881  1
  C  C1169  1  0.34328920  0.07357942  0.60318149  1
  C  C1170  1  0.31874389  0.09609098  0.62912093  1
  C  C1171  1  0.37262695  0.09469919  0.59843590  1
  O  O1172  1  0.29335393  0.07916158  0.63568472  1
  O  O1173  1  0.32488608  0.13362166  0.64321978  1
  Cu  Cu1174  1  0.33502910  0.14580089  0.69773930  1
  C  C1175  1  0.39399027  0.07369845  0.57285807  1
  H  H1176  1  0.37606835  0.12647981  0.61400362  1
  C  C1177  1  0.38705053  0.18557588  0.68586261  1
  O  O1178  1  0.37671170  0.14683828  0.68287204  1
  H  H1179  1  0.41636753  0.08744594  0.56818770  1
  H  H1180  1  0.41981087  0.14690363  0.64285034  1
  C  C1181  1  0.40999703  0.17852671  0.56615894  1
  C  C1182  1  0.41896331  0.19516220  0.70050047  1
  C  C1183  1  0.43679498  0.13505005  0.61942513  1
  C  C1184  1  0.43373117  0.14697726  0.57895710  1
  C  C1185  1  0.44269653  0.04087273  0.71735680  1
  H  H1186  1  0.38796976  0.03411774  0.67028091  1
  O  O1187  1  0.37085473  0.21561689  0.67048814  1
  C  C1188  1  0.46228450  0.10992947  0.63312933  1
  C  C1189  1  0.45328864  0.12714377  0.54985385  1
  O  O1190  1  0.29529628  0.15045657  0.71700624  1
  C  C1191  1  0.42803287  0.23908835  0.70452628  1
  H  H1192  1  0.42953847  0.12779904  0.71239551  1
  C  C1193  1  0.43874119  0.16104197  0.71319444  1
  C  C1194  1  0.27669142  0.18206749  0.70936985  1
  O  O1195  1  0.39003487  0.19306844  0.59083976  1
  O  O1196  1  0.27170177  0.19801432  0.67693599  1
  C  C1197  1  0.46814284  0.16931802  0.72971275  1
  H  H1198  1  0.46644773  0.10251651  0.66442104  1
  Cu  Cu1199  1  0.38721222  0.24115778  0.62092925  1
  C  C1200  1  0.47631505  0.21312293  0.73704094  1
  H  H1201  1  0.34465541  0.06430280  0.51986751  1
  C  C1202  1  0.41012382  0.01916018  0.52435926  1
  C  C1203  1  0.45578616  0.24667459  0.72456748  1
  O  O1204  1  0.41667417  0.06291227  0.73029481  1
  C  C1205  1  0.48203673  0.08921868  0.60415729  1
  C  C1206  1  0.47458056  0.09620596  0.56322329  1
  O  O1207  1  0.41201440  0.19330427  0.53068209  1
  O  O1208  1  0.46764669  0.04799482  0.73378155  1
  H  H1209  1  0.44960333  0.13706008  0.51754618  1
  Cu  Cu1210  1  0.42587186  0.24340179  0.51332724  1
  H  H1211  1  0.48162089  0.14282393  0.74256682  1
  H  H1212  1  0.31022701  0.01837830  0.59271573  1
  C  C1213  1  0.40557832  0.00740648  0.66620586  1
  C  C1214  1  0.35603042  0.01051455  0.56301763  1
  H  H1215  1  0.48155992  0.01207149  0.63585370  1
  C  C1216  1  0.43414348  0.00833794  0.68581668  1
  C  C1217  1  0.25434551  0.19335154  0.74299081  1
  H  H1218  1  0.48769728  0.07657207  0.54254758  1
  H  H1219  1  0.27771887  0.00448432  0.51586774  1
  H  H1220  1  0.41112622  0.26655213  0.69837285  1
  H  H1221  1  0.30541444  0.26744125  0.54382496  1
  H  H1222  1  0.28604802  0.28058375  0.61464036  1
  H  H1223  1  0.46578695  0.27898060  0.73378085  1
  O  O1224  1  0.38752421  0.29082457  0.64417685  1
  O  O1225  1  0.34323282  0.32587309  0.63764724  1
  H  H1226  1  0.27112819  0.34750212  0.68253666  1
  C  C1227  1  0.37116471  0.32553314  0.63557406  1
  C  C1228  1  0.39016963  0.36585810  0.62522583  1
  C  C1229  1  0.42259042  0.43662760  0.59951243  1
  C  C1230  1  0.29195802  0.46329205  0.63085158  1
  C  C1231  1  0.30420284  0.45805674  0.58731455  1
  C  C1232  1  0.30446115  0.41708413  0.56799784  1
  H  H1233  1  0.29353893  0.38866959  0.58137881  1
  C  C1234  1  0.37256958  0.40470041  0.62092578  1
  C  C1235  1  0.38994217  0.43966095  0.60672150  1
  C  C1236  1  0.32208627  0.41051837  0.53332177  1
  C  C1237  1  0.43898036  0.47853240  0.58598790  1
  C  C1238  1  0.43968673  0.39860877  0.60735378  1
  C  C1239  1  0.42267416  0.36225198  0.61969192  1
  H  H1240  1  0.43617339  0.33177473  0.62600018  1
  H  H1241  1  0.37778240  0.47124965  0.60238671  1
  H  H1242  1  0.34628766  0.40544017  0.62269512  1
  C  C1243  1  0.45780582  0.41808048  0.69621491  1
  H  H1244  1  0.45217376  0.44252697  0.67237648  1
  C  C1245  1  0.25905838  0.45533485  0.63827204  1
  C  C1246  1  0.28713279  0.29306797  0.54957659  1
  C  C1247  1  0.27685579  0.29898384  0.58935554  1
  H  H1248  1  0.46590015  0.39827139  0.60434567  1
  C  C1249  1  0.34044155  0.48556017  0.53696192  1
  H  H1250  1  0.41019368  0.39643015  0.70369775  1
  C  C1251  1  0.43456217  0.39081130  0.71159033  1
  C  C1252  1  0.27551040  0.31917552  0.51687358  1
  H  H1253  1  0.32409398  0.37709396  0.52070157  1
  C  C1254  1  0.34041182  0.44541906  0.51645762  1
  H  H1255  1  0.44022739  0.41676419  0.52658023  1
  C  C1256  1  0.46397559  0.40468024  0.52150904  1
  C  C1257  1  0.32231257  0.49470639  0.57206128  1
  C  C1258  1  0.31106134  0.47911081  0.66386327  1
  C  C1259  1  0.26441030  0.47934237  0.70939942  1
  H  H1260  1  0.33609864  0.48644300  0.66038436  1
  C  C1261  1  0.47055258  0.48560118  0.60079840  1
  C  C1262  1  0.29660600  0.48915767  0.70080709  1
  H  H1263  1  0.48141919  0.46678463  0.53357834  1
  C  C1264  1  0.47101937  0.36264138  0.50817310  1
  C  C1265  1  0.48868103  0.43381744  0.52578197  1
  H  H1266  1  0.25165868  0.46914997  0.55845325  1
  C  C1267  1  0.25317017  0.35338940  0.52379702  1
  O  O1268  1  0.41773190  0.34647042  0.50758466  1
  H  H1269  1  0.48169601  0.46155080  0.62077240  1
  C  C1270  1  0.44538873  0.33233510  0.50401277  1
  C  C1271  1  0.25308532  0.33042725  0.59284586  1
  H  H1272  1  0.25426358  0.48595928  0.74049533  1
  H  H1273  1  0.49044674  0.49934745  0.68080708  1
  H  H1274  1  0.38931218  0.49852839  0.67475612  1
  H  H1275  1  0.37348311  0.46048700  0.73932971  1
  C  C1276  1  0.49093445  0.41232593  0.70870534  1
  C  C1277  1  0.49808113  0.38046437  0.73793462  1
  C  C1278  1  0.44271223  0.35943099  0.74008303  1
  O  O1279  1  0.29469685  0.02021119  0.86300329  1
  H  H1280  1  0.43467713  0.01251319  0.85552159  1
  H  H1281  1  0.43444079  0.01754076  0.92987640  1
  O  O1282  1  0.37671051  0.02040987  0.81509356  1
  H  H1283  1  0.37002610  0.02226267  0.89098646  1
  O  O1284  1  0.36034275  0.09040796  0.76218531  1
  H  H1285  1  0.28415900  0.02750952  0.93251582  1
  C  C1286  1  0.25913423  0.17301261  0.77958189  1
  O  O1287  1  0.26714924  0.10003777  0.84764457  1
  H  H1288  1  0.27520549  0.14524579  0.78135556  1
  C  C1289  1  0.45102412  0.07427631  0.88015501  1
  Cu  Cu1290  1  0.39383560  0.04358005  0.77190712  1
  H  H1291  1  0.40003874  0.14144448  0.87455393  1
  H  H1292  1  0.34783489  0.13056108  0.91609456  1
  C  C1293  1  0.36947724  0.10966207  0.92032648  1
  C  C1294  1  0.39625161  0.11358598  0.89576062  1
  C  C1295  1  0.26852577  0.15260176  0.91022237  1
  Cu  Cu1296  1  0.30563527  0.06674649  0.83393945  1
  O  O1297  1  0.32220136  0.11271011  0.80344900  1
  C  C1298  1  0.34957213  0.11642176  0.78746945  1
  C  C1299  1  0.36963871  0.14719540  0.81067197  1
  C  C1300  1  0.35811463  0.17416301  0.84176346  1
  H  H1301  1  0.33405606  0.16894668  0.85350301  1
  C  C1302  1  0.40097192  0.14866047  0.79508001  1
  C  C1303  1  0.37890135  0.20354278  0.85978520  1
  H  H1304  1  0.40945029  0.12753202  0.77265861  1
  C  C1305  1  0.41814627  0.07973309  0.90064695  1
  C  C1306  1  0.41667825  0.04401822  0.92775020  1
  H  H1307  1  0.28185320  0.16321194  0.88452897  1
  H  H1308  1  0.43083596  0.17605044  0.92502209  1
  C  C1309  1  0.36881085  0.07845124  0.95169187  1
  C  C1310  1  0.39203771  0.04647390  0.95553819  1
  C  C1311  1  0.27102557  0.17355356  0.94796795  1
  C  C1312  1  0.42007581  0.17864059  0.81441398  1
  C  C1313  1  0.41134239  0.20436980  0.84838779  1
  H  H1314  1  0.44559088  0.17977580  0.80641124  1
  C  C1315  1  0.44668304  0.19958494  0.91232773  1
  C  C1316  1  0.43749655  0.22362603  0.87604542  1
  H  H1317  1  0.37152879  0.22608629  0.88414526  1
  C  C1318  1  0.47466145  0.21215430  0.93277181  1
  C  C1319  1  0.45539887  0.03499959  0.85921036  1
  H  H1320  1  0.28619202  0.20522939  0.95239165  1
  O  O1321  1  0.34882344  0.20334543  0.96637013  1
  O  O1322  1  0.31881615  0.10104749  0.97737184  1
  H  H1323  1  0.47358483  0.12832107  0.91273691  1
  C  C1324  1  0.47745987  0.10167153  0.89097495  1
  H  H1325  1  0.39964437  0.23185060  0.95233922  1
  C  C1326  1  0.48399071  0.18770984  0.97145384  1
  C  C1327  1  0.33972606  0.23969677  0.94454444  1
  C  C1328  1  0.34260264  0.07681547  0.98105372  1
  C  C1329  1  0.48553576  0.02800047  0.84066648  1
  Cu  Cu1330  1  0.31993560  0.16125114  0.98610264  1
  C  C1331  1  0.49651570  0.24318485  0.91707851  1
  C  C1332  1  0.26201027  0.00569796  0.93336758  1
  O  O1333  1  0.31248267  0.24675804  0.93706353  1
  H  H1334  1  0.25225228  0.17692247  0.84511394  1
  C  C1335  1  0.25431772  0.15955098  0.98386067  1
  H  H1336  1  0.39116605  0.02594433  0.98301081  1
  H  H1337  1  0.43571539  0.19046597  0.99442520  1
  H  H1338  1  0.26909529  0.27609267  0.75403887  1
  C  C1339  1  0.33080266  0.41632487  0.98746294  1
  C  C1340  1  0.45898508  0.25758091  0.86513085  1
  C  C1341  1  0.49630212  0.25612248  0.79121969  1
  C  C1342  1  0.26928720  0.37219824  0.99104062  1
  O  O1343  1  0.38372047  0.41364637  0.96782927  1
  H  H1344  1  0.26752673  0.40089772  0.84435597  1
  H  H1345  1  0.25745732  0.28990668  0.97269210  1
  C  C1346  1  0.29683852  0.35110039  0.97560463  1
  O  O1347  1  0.27425752  0.32088482  0.89013305  1
  C  C1348  1  0.32717199  0.37343429  0.97618512  1
  C  C1349  1  0.47456437  0.35504514  0.75324627  1
  C  C1350  1  0.45791503  0.48661971  0.76835362  1
  C  C1351  1  0.48607369  0.41635675  0.88427377  1
  H  H1352  1  0.43356289  0.46503108  0.82140056  1
  C  C1353  1  0.44129673  0.47508748  0.89838700  1
  C  C1354  1  0.40869347  0.32710442  0.89881517  1
  C  C1355  1  0.48808679  0.26887476  0.88369837  1
  H  H1356  1  0.47167856  0.26901958  0.79055535  1
  H  H1357  1  0.45143330  0.27789625  0.83943106  1
  H  H1358  1  0.34625692  0.35295149  0.96735538  1
  C  C1359  1  0.46947241  0.40568563  0.84956324  1
  C  C1360  1  0.28036219  0.46104232  0.80285244  1
  H  H1361  1  0.36821539  0.35961009  0.86604283  1
  C  C1362  1  0.42030364  0.32861576  0.75901926  1
  H  H1363  1  0.27968575  0.28998065  0.82648720  1
  C  C1364  1  0.45845118  0.47493633  0.81250806  1
  C  C1365  1  0.37643812  0.33496878  0.88750530  1
  H  H1366  1  0.45036328  0.35400974  0.95452811  1
  H  H1367  1  0.49595535  0.33089236  0.84692690  1
  H  H1368  1  0.48077214  0.33322889  0.77898742  1
  C  C1369  1  0.25519720  0.46940310  0.86573635  1
  H  H1370  1  0.44390753  0.28706077  0.92844779  1
  C  C1371  1  0.43952256  0.46927337  0.93996616  1
  C  C1372  1  0.44543054  0.37334738  0.85190434  1
  C  C1373  1  0.48180165  0.39584929  0.92263556  1
  O  O1374  1  0.39305052  0.32721884  0.75221959  1
  C  C1375  1  0.45814180  0.49811089  0.96493701  1
  C  C1376  1  0.43833631  0.35595351  0.88983039  1
  O  O1377  1  0.43340226  0.29678862  0.78954669  1
  H  H1378  1  0.42937804  0.44917558  0.87913470  1
  H  H1379  1  0.41556835  0.27738721  0.78918984  1
  H  H1380  1  0.46996421  0.41506997  0.78394965  1
  C  C1381  1  0.48616915  0.40499764  0.99444879  1
  C  C1382  1  0.29745943  0.43666640  0.78252166  1
  C  C1383  1  0.41745339  0.29118813  0.92402509  1
  C  C1384  1  0.26395515  0.35028318  0.87277373  1
  H  H1385  1  0.42496961  0.44457726  0.95552890  1
  C  C1386  1  0.26399144  0.31216707  0.81112504  1
  C  C1387  1  0.26101269  0.42527401  0.86988899  1
  H  H1388  1  0.26917460  0.47387098  0.94101546  1
  H  H1389  1  0.29485528  0.31874245  0.96148883  1
  C  C1390  1  0.39487853  0.26236833  0.93800305  1
  C  C1391  1  0.35297692  0.30735946  0.90530141  1
  C  C1392  1  0.36307497  0.27082395  0.92828615  1
  H  H1393  1  0.43262562  0.36370358  0.82566510  1
  O  O1394  1  0.35814050  0.43123228  0.85554615  1
  C  C1395  1  0.35746395  0.44236551  0.82161681  1
  H  H1396  1  0.29933163  0.42336819  0.75006806  1
  C  C1397  1  0.25765490  0.30406209  0.76979480  1
  C  C1398  1  0.26316376  0.48766968  0.82753666  1
  H  H1399  1  0.32819758  0.31315072  0.89993675  1
  H  H1400  1  0.33298481  0.39141208  0.80608308  1
  C  C1401  1  0.37448929  0.48019478  0.80322808  1
  C  C1402  1  0.45611809  0.36574724  0.92446364  1
  C  C1403  1  0.25133113  0.34871474  0.83042950  1
  O  O1404  1  0.33695627  0.41486805  0.78662031  1
  C  C1405  1  0.47959190  0.43026045  0.81085421  1
  O  O1406  1  0.25889444  0.39446873  0.89453103  1
  C  C1407  1  0.25158176  0.49916612  0.93407906  1
  C  C1408  1  0.36355845  0.43352150  0.98557328  1
  C  C1409  1  0.37652249  0.48824812  0.76068261  1
  H  H1410  1  0.46047149  0.39543633  0.99410691  1
  H  H1411  1  0.30622621  0.55158718  0.18269422  1
  C  C1412  1  0.28556936  0.57145893  0.19173718  1
  C  C1413  1  0.44415762  0.68992164  0.18143330  1
  C  C1414  1  0.31450506  0.64794378  0.11691907  1
  C  C1415  1  0.33220774  0.62035669  0.09098126  1
  H  H1416  1  0.35592992  0.62938061  0.08409269  1
  C  C1417  1  0.36389759  0.66609611  0.15248487  1
  C  C1418  1  0.38782536  0.69085086  0.16169582  1
  C  C1419  1  0.33271094  0.68309680  0.13650375  1
  C  C1420  1  0.28141567  0.63853937  0.12819921  1
  H  H1421  1  0.44825593  0.65613418  0.18796833  1
  C  C1422  1  0.41505791  0.71294060  0.17246715  1
  C  C1423  1  0.31688629  0.58565715  0.07283830  1
  C  C1424  1  0.28658609  0.57399889  0.08615508  1
  H  H1425  1  0.34658502  0.56871899  0.19653300  1
  C  C1426  1  0.28910182  0.61120833  0.21227595  1
  H  H1427  1  0.33138220  0.56400062  0.05316373  1
  H  H1428  1  0.36821423  0.63022733  0.15167996  1
  C  C1429  1  0.34827538  0.59709354  0.21495104  1
  C  C1430  1  0.27135798  0.53343907  0.06948193  1
  H  H1431  1  0.27191159  0.65555368  0.15379203  1
  C  C1432  1  0.26883177  0.60030116  0.11296363  1
  O  O1433  1  0.47369206  0.51698807  0.03179385  1
  H  H1434  1  0.29405349  0.71886973  0.13518762  1
  C  C1435  1  0.31773184  0.72203099  0.14807669  1
  C  C1436  1  0.32164990  0.62474163  0.22415053  1
  Cu  Cu1437  1  0.47750330  0.50326512  0.08712866  1
  O  O1438  1  0.28545462  0.50881353  0.04795204  1
  H  H1439  1  0.27764675  0.51368813  0.13612592  1
  C  C1440  1  0.46733174  0.72257148  0.17831543  1
  O  O1441  1  0.29776411  0.72978467  0.04819231  1
  H  H1442  1  0.40002010  0.58555505  0.22420661  1
  C  C1443  1  0.26204830  0.63527532  0.22158333  1
  C  C1444  1  0.39787037  0.62010379  0.02842794  1
  C  C1445  1  0.37853024  0.60713432  0.23134803  1
  O  O1446  1  0.43668685  0.52210738  0.10501642  1
  C  C1447  1  0.25894248  0.51108104  0.16188287  1
  H  H1448  1  0.25381323  0.73278738  0.07224288  1
  H  H1449  1  0.25767508  0.52314589  0.23922534  1
  C  C1450  1  0.25470245  0.55468231  0.18370403  1
  H  H1451  1  0.26444017  0.66652435  0.23527140  1
  H  H1452  1  0.45663270  0.50991208  0.17551838  1
  H  H1453  1  0.35813731  0.71990623  0.02945647  1
  C  C1454  1  0.32892123  0.66343245  0.24632937  1
  C  C1455  1  0.35763244  0.74581106  0.00814324  1
  H  H1456  1  0.25192871  0.85209945  0.17253593  1
  C  C1457  1  0.25049412  0.96658923  0.04740704  1
  C  C1458  1  0.29825392  0.76044185  0.02415844  1
  H  H1459  1  0.26268974  0.92599244  0.19599694  1
  O  O1460  1  0.32318185  0.75804858  0.16469500  1
  C  C1461  1  0.42083500  0.76127077  0.16436508  1
  O  O1462  1  0.26905123  0.78020156  0.15351046  1
  C  C1463  1  0.45307092  0.76378026  0.17072520  1
  H  H1464  1  0.35556816  0.78823745  0.11465354  1
  C  C1465  1  0.29306723  0.78963782  0.16917569  1
  O  O1466  1  0.39768681  0.78727547  0.15591028  1
  H  H1467  1  0.46708619  0.79248973  0.17021877  1
  H  H1468  1  0.35361624  0.81825278  0.19124988  1
  O  O1469  1  0.42275765  0.85689320  0.16608348  1
  C  C1470  1  0.40160393  0.83808921  0.15076994  1
  C  C1471  1  0.34002134  0.88861296  0.19980345  1
  C  C1472  1  0.37774189  0.85368594  0.12288523  1
  C  C1473  1  0.33436654  0.84398335  0.19395888  1
  C  C1474  1  0.31428242  0.91805961  0.20120142  1
  C  C1475  1  0.30244117  0.83173941  0.18388797  1
  C  C1476  1  0.35588067  0.82339237  0.10533308  1
  C  C1477  1  0.37890002  0.89936825  0.11507081  1
  H  H1478  1  0.39494156  0.92068109  0.12817189  1
  C  C1479  1  0.33528439  0.83912904  0.07596943  1
  C  C1480  1  0.33633441  0.88310774  0.06682757  1
  C  C1481  1  0.44997619  0.93535682  0.18488644  1
  C  C1482  1  0.35692474  0.91481146  0.08697604  1
  C  C1483  1  0.41685256  0.91672478  0.04796535  1
  H  H1484  1  0.42776668  0.91971883  0.19380636  1
  C  C1485  1  0.43374919  0.95260986  0.06056697  1
  H  H1486  1  0.27259358  0.85562295  0.05179471  1
  H  H1487  1  0.32098769  0.81586723  0.05811982  1
  C  C1488  1  0.31333034  0.89688660  0.03266029  1
  H  H1489  1  0.35683164  0.95029530  0.07780815  1
  C  C1490  1  0.43306090  0.87790778  0.04769528  1
  C  C1491  1  0.46453172  0.87517595  0.06095700  1
  C  C1492  1  0.28308465  0.90405120  0.19301247  1
  C  C1493  1  0.27617205  0.86113901  0.18205665  1
  H  H1494  1  0.39366348  0.92045613  0.03156042  1
  H  H1495  1  0.41898136  0.85017227  0.03666550  1
  H  H1496  1  0.36559533  0.89904355  0.20394474  1
  C  C1497  1  0.28305655  0.87531317  0.02819248  1
  C  C1498  1  0.27067522  0.95612500  0.07714767  1
  H  H1499  1  0.30153161  0.91811226  0.11664016  1
  C  C1500  1  0.29107153  0.95005969  0.10946231  1
  C  C1501  1  0.46338766  0.95014406  0.08045786  1
  C  C1502  1  0.47786985  0.91077081  0.08109467  1
  C  C1503  1  0.32140798  0.96616958  0.21070097  1
  C  C1504  1  0.29636753  0.97558964  0.14500010  1
  C  C1505  1  0.48640349  0.83583952  0.05896554  1
  C  C1506  1  0.47826502  0.91226375  0.18954372  1
  H  H1507  1  0.48747898  0.81633507  0.12349429  1
  H  H1508  1  0.47521484  0.87902174  0.20001035  1
  C  C1509  1  0.45255148  0.97708488  0.16940031  1
  H  H1510  1  0.47613599  0.97765543  0.09294736  1
  O  O1511  1  0.27520231  0.78091384  0.01436488  1
  H  H1512  1  0.34846723  0.93639736  0.00069616  1
  C  C1513  1  0.32471076  0.92228827  0.00068194  1
  H  H1514  1  0.43468251  0.78075859  0.24293398  1
  C  C1515  1  0.30475196  0.99499402  0.17922505  1
  C  C1516  1  0.34127756  0.98074054  0.23920889  1
  H  H1517  1  0.37676793  0.76004706  0.24490401  1
  C  C1518  1  0.49985777  0.81467062  0.09387948  1
  C  C1519  1  0.41961201  0.99633157  0.05433707  1
  C  C1520  1  0.48186994  0.99464159  0.15653806  1
  O  O1521  1  0.40066564  0.98972581  0.17863296  1
  H  H1522  1  0.47555669  0.99581504  0.00764401  1
  C  C1523  1  0.33087465  0.77272889  0.00325882  1
  O  O1524  1  0.25452494  0.70156061  0.41353585  1
  H  H1525  1  0.26872631  0.51539244  0.40211629  1
  H  H1526  1  0.30940336  0.68657546  0.25359549  1
  C  C1527  1  0.29203530  0.50165095  0.30378213  1
  C  C1528  1  0.27828439  0.52270313  0.37225542  1
  O  O1529  1  0.43824133  0.62735140  0.25835250  1
  C  C1530  1  0.38300059  0.64673247  0.25102522  1
  C  C1531  1  0.35871176  0.67680476  0.25606546  1
  H  H1532  1  0.26933020  0.64168889  0.35317922  1
  H  H1533  1  0.31562316  0.54823213  0.26373660  1
  C  C1534  1  0.30814234  0.54030836  0.29584687  1
  Cu  Cu1535  1  0.27940626  0.69325686  0.45681829  1
  C  C1536  1  0.41781467  0.65391804  0.26186605  1
  H  H1537  1  0.36246986  0.70744878  0.27197848  1
  O  O1538  1  0.28170974  0.58800645  0.42814331  1
  Cu  Cu1539  1  0.35275412  0.64878591  0.41518665  1
  C  C1540  1  0.30911253  0.57097821  0.32719288  1
  C  C1541  1  0.29646044  0.59434339  0.39638633  1
  O  O1542  1  0.31725264  0.62444097  0.39026125  1
  H  H1543  1  0.32017355  0.60239883  0.32240895  1
  O  O1544  1  0.38911431  0.63419710  0.38540099  1
  C  C1545  1  0.41631394  0.63846005  0.40292890  1
  O  O1546  1  0.43408180  0.66889977  0.39214520  1
  C  C1547  1  0.42402613  0.61445554  0.43905936  1
  Cu  Cu1548  1  0.42923029  0.68732730  0.33616452  1
  H  H1549  1  0.46532439  0.65539335  0.45123698  1
  O  O1550  1  0.42105070  0.68970867  0.28197661  1
  O  O1551  1  0.46180614  0.72541417  0.34313378  1
  O  O1552  1  0.35444724  0.66830575  0.46876020  1
  C  C1553  1  0.45067257  0.62775285  0.46211095  1
  C  C1554  1  0.29554374  0.56096276  0.36462947  1
  C  C1555  1  0.40417850  0.58027399  0.44951631  1
  H  H1556  1  0.38290262  0.57384785  0.43059540  1
  C  C1557  1  0.49170870  0.72044157  0.33213689  1
  H  H1558  1  0.47806730  0.70579760  0.40938955  1
  C  C1559  1  0.41041486  0.55509361  0.48365251  1
  H  H1560  1  0.38321488  0.73376371  0.46222406  1
  H  H1561  1  0.25727788  0.58404686  0.30914454  1
  C  C1562  1  0.45361780  0.60679458  0.49872602  1
  C  C1563  1  0.33517506  0.66152714  0.49785031  1
  H  H1564  1  0.39641890  0.52765721  0.49313526  1
  O  O1565  1  0.30760357  0.67893554  0.49635920  1
  H  H1566  1  0.40139507  0.99527551  0.31838535  1
  C  C1567  1  0.48654165  0.88630031  0.43490246  1
  C  C1568  1  0.37573675  0.82205622  0.41000248  1
  H  H1569  1  0.47681063  0.98538274  0.44632317  1
  H  H1570  1  0.42766486  0.98914120  0.27646537  1
  O  O1571  1  0.27107284  0.75188179  0.47671830  1
  C  C1572  1  0.47157016  0.90070790  0.27259845  1
  H  H1573  1  0.36362831  0.86024214  0.47868054  1
  C  C1574  1  0.40331683  0.87127520  0.29160709  1
  O  O1575  1  0.34482233  0.75702908  0.41880670  1
  H  H1576  1  0.49570909  0.84193547  0.48326021  1
  C  C1577  1  0.48477443  0.80628513  0.42985969  1
  H  H1578  1  0.49057742  0.91510809  0.45214936  1
  O  O1579  1  0.28915677  0.90757564  0.32429148  1
  C  C1580  1  0.45363296  0.98888973  0.33110708  1
  C  C1581  1  0.49022830  0.84596611  0.45141191  1
  O  O1582  1  0.48399601  0.76920208  0.44358060  1
  C  C1583  1  0.45985572  0.99915835  0.46946661  1
  O  O1584  1  0.39317320  0.76134705  0.45294893  1
  C  C1585  1  0.40366295  0.88970907  0.40325697  1
  C  C1586  1  0.38670603  0.78857188  0.26139989  1
  C  C1587  1  0.37519936  0.88937752  0.48853410  1
  C  C1588  1  0.37944782  0.95775769  0.38023602  1
  C  C1589  1  0.35634337  0.97721049  0.35490880  1
  H  H1590  1  0.46690803  0.85408446  0.33499229  1
  O  O1591  1  0.26001286  0.95848565  0.29756080  1
  C  C1592  1  0.37399420  0.91096559  0.39178958  1
  H  H1593  1  0.32497992  0.82261470  0.39752921  1
  C  C1594  1  0.26023627  0.96092571  0.36847774  1
  H  H1595  1  0.43123372  0.92896474  0.33830541  1
  H  H1596  1  0.33618260  0.95629547  0.34327871  1
  C  C1597  1  0.27084596  0.94181514  0.32699754  1
  C  C1598  1  0.34650273  0.84204294  0.39898991  1
  H  H1599  1  0.42650173  0.90812808  0.40508074  1
  C  C1600  1  0.42684178  0.84404577  0.27372914  1
  C  C1601  1  0.34573478  0.88620149  0.38910424  1
  C  C1602  1  0.40536728  0.84543493  0.40895885  1
  C  C1603  1  0.34906827  0.96289380  0.47742146  1
  C  C1604  1  0.47660582  0.93148509  0.37084761  1
  H  H1605  1  0.47406318  0.78775166  0.27724289  1
  C  C1606  1  0.47730825  0.81142134  0.38625891  1
  C  C1607  1  0.48322247  0.82150607  0.27150409  1
  C  C1608  1  0.25719753  0.95654154  0.44079507  1
  H  H1609  1  0.45485986  0.92697605  0.27481349  1
  C  C1610  1  0.36603763  0.81415794  0.28426517  1
  C  C1611  1  0.26854157  0.93941308  0.40464254  1
  H  H1612  1  0.28016138  0.90770519  0.40411355  1
  H  H1613  1  0.35508494  0.87361890  0.31456664  1
  C  C1614  1  0.33245084  0.79892585  0.29439247  1
  O  O1615  1  0.32346905  0.76476681  0.28461775  1
  H  H1616  1  0.47397339  0.78019660  0.37019393  1
  O  O1617  1  0.31321649  0.82795737  0.31014965  1
  C  C1618  1  0.47377665  0.85102383  0.36792560  1
  C  C1619  1  0.36823006  0.77829036  0.42620662  1
  C  C1620  1  0.45101839  0.94725534  0.34774819  1
  C  C1621  1  0.46116250  0.85606585  0.27222602  1
  C  C1622  1  0.48114847  0.88776598  0.39259469  1
  C  C1623  1  0.32358638  0.99149137  0.48618766  1
  C  C1624  1  0.37334974  0.85519720  0.29935295  1
  H  H1625  1  0.26375594  0.94075878  0.47031780  1
  H  H1626  1  0.41004790  0.90314029  0.30571678  1
  H  H1627  1  0.41653362  0.97200250  0.42487675  1
  H  H1628  1  0.42725123  0.82900467  0.41549753  1
  Cu  Cu1629  1  0.28530703  0.86244882  0.28838999  1
  C  C1630  1  0.41815794  0.80340639  0.25707454  1
  H  H1631  1  0.39082383  0.89948044  0.46246098  1
  H  H1632  1  0.36834298  0.97474833  0.45911686  1
  C  C1633  1  0.40316331  0.98415290  0.39930976  1
  H  H1634  1  0.32389066  0.89921261  0.37722595  1
  C  C1635  1  0.34997683  0.92269757  0.49931821  1
  H  H1636  1  0.31623137  0.64089958  0.66814763  1
  C  C1637  1  0.32616477  0.67103056  0.68374964  1
  H  H1638  1  0.36172876  0.64932656  0.62658908  1
  C  C1639  1  0.36109475  0.58127650  0.59786507  1
  C  C1640  1  0.33003510  0.59827684  0.59234982  1
  C  C1641  1  0.47203823  0.66243556  0.57119297  1
  C  C1642  1  0.45515390  0.65094326  0.60531752  1
  C  C1643  1  0.32143921  0.62633909  0.56286243  1
  C  C1644  1  0.29285822  0.55779948  0.73630606  1
  C  C1645  1  0.35757289  0.68364664  0.62402883  1
  C  C1646  1  0.42544068  0.66989570  0.61207808  1
  C  C1647  1  0.33707904  0.70340961  0.65213858  1
  C  C1648  1  0.41109289  0.69889447  0.58570945  1
  H  H1649  1  0.41482148  0.66574290  0.64049770  1
  C  C1650  1  0.38301481  0.59228737  0.56625512  1
  C  C1651  1  0.37899175  0.71275076  0.60196903  1
  H  H1652  1  0.31119511  0.59084349  0.61565894  1
  H  H1653  1  0.29612883  0.63516358  0.56197062  1
  C  C1654  1  0.45828559  0.69328414  0.54358667  1
  C  C1655  1  0.28461302  0.57047222  0.69730309  1
  H  H1656  1  0.29529095  0.55339320  0.67113301  1
  C  C1657  1  0.37066101  0.55028455  0.62986168  1
  C  C1658  1  0.42861006  0.70939543  0.54922026  1
  C  C1659  1  0.37483075  0.61743641  0.53356934  1
  C  C1660  1  0.44421321  0.54242129  0.54465800  1
  C  C1661  1  0.46765298  0.57708917  0.71046554  1
  H  H1662  1  0.40677899  0.57921152  0.57007710  1
  C  C1663  1  0.47515272  0.54880260  0.56037359  1
  C  C1664  1  0.34380950  0.63430060  0.53172349  1
  C  C1665  1  0.35643750  0.65509454  0.70923801  1
  H  H1666  1  0.30715613  0.68443614  0.70322983  1
  C  C1667  1  0.26172612  0.60319852  0.69064469  1
  H  H1668  1  0.29817429  0.71594881  0.61575501  1
  C  C1669  1  0.27815609  0.72919543  0.59950250  1
  C  C1670  1  0.27855318  0.73886288  0.55922612  1
  H  H1671  1  0.38475114  0.53728752  0.71363115  1
  C  C1672  1  0.45448886  0.53555487  0.70442300  1
  H  H1673  1  0.37477922  0.71617681  0.70128656  1
  H  H1674  1  0.46521289  0.62667911  0.62522007  1
  H  H1675  1  0.29841147  0.73510677  0.53967933  1
  C  C1676  1  0.38058986  0.68566114  0.71568632  1
  H  H1677  1  0.46568526  0.60160229  0.68627783  1
  H  H1678  1  0.47413780  0.61834746  0.51912542  1
  H  H1679  1  0.33809873  0.53010238  0.71667951  1
  H  H1680  1  0.42116835  0.73718826  0.52880801  1
  C  C1681  1  0.37885577  0.52440381  0.65487788  1
  H  H1682  1  0.32352561  0.52335840  0.58997445  1
  H  H1683  1  0.44872873  0.52614345  0.67283483  1
  C  C1684  1  0.25177088  0.73869406  0.66887855  1
  H  H1685  1  0.26425989  0.53619161  0.63503052  1
  H  H1686  1  0.47193930  0.70345463  0.51769497  1
  C  C1687  1  0.31542023  0.51905973  0.73154470  1
  H  H1688  1  0.35366611  0.51171210  0.52398760  1
  H  H1689  1  0.34285289  0.58951428  0.72592500  1
  C  C1690  1  0.43577912  0.56991530  0.50887012  1
  C  C1691  1  0.33121861  0.74942351  0.65175026  1
  C  C1692  1  0.25141095  0.74387021  0.62432228  1
  C  C1693  1  0.25125683  0.73406208  0.74788495  1
  C  C1694  1  0.25044717  0.73535121  0.70621923  1
  H  H1695  1  0.48652958  0.57810901  0.55299776  1
  C  C1696  1  0.35955501  0.61519320  0.73001719  1
  H  H1697  1  0.39068906  0.62691271  0.50908046  1
  C  C1698  1  0.48759806  0.52395363  0.59351544  1
  C  C1699  1  0.40723047  0.68162941  0.74352179  1
  H  H1700  1  0.39973411  0.50202089  0.54971080  1
  C  C1701  1  0.38415922  0.52979451  0.74606041  1
  C  C1702  1  0.42493579  0.50781479  0.55819016  1
  C  C1703  1  0.45733015  0.50167472  0.73443450  1
  C  C1704  1  0.42960348  0.71925834  0.74759347  1
  C  C1705  1  0.25293865  0.60541500  0.64630335  1
  C  C1706  1  0.25691936  0.56738578  0.62097984  1
  H  H1707  1  0.25355999  0.54545563  0.56076040  1
  C  C1708  1  0.25110661  0.57379087  0.58039944  1
  H  H1709  1  0.26025154  0.99330352  0.59239824  1
  H  H1710  1  0.31473236  0.76291896  0.67501080  1
  C  C1711  1  0.37246519  0.75808699  0.59954186  1
  C  C1712  1  0.34808592  0.77530742  0.62466808  1
  H  H1713  1  0.38536881  0.78090092  0.58157190  1
  C  C1714  1  0.26916233  0.93250577  0.55915959  1
  H  H1715  1  0.27519376  0.88839375  0.63972002  1
  C  C1716  1  0.46230223  0.78865164  0.61548283  1
  H  H1717  1  0.44618411  0.79565260  0.63965947  1
  H  H1718  1  0.28690814  0.81596495  0.61712732  1
  H  H1719  1  0.38872843  0.84635591  0.62835927  1
  C  C1720  1  0.36417663  0.85398111  0.63323920  1
  C  C1721  1  0.33936238  0.82314583  0.62713092  1
  C  C1722  1  0.30704242  0.83587415  0.62740663  1
  C  C1723  1  0.32346823  0.90762212  0.65005793  1
  C  C1724  1  0.47258697  0.78452451  0.54230212  1
  C  C1725  1  0.45557073  0.80285745  0.57495934  1
  C  C1726  1  0.43256173  0.83866473  0.56944177  1
  C  C1727  1  0.43207318  0.87053730  0.59972363  1
  C  C1728  1  0.35462479  0.89601725  0.64384328  1
  H  H1729  1  0.44661134  0.86543066  0.62672459  1
  H  H1730  1  0.37349376  0.91983853  0.64809715  1
  C  C1731  1  0.29975600  0.87824663  0.63882537  1
  C  C1732  1  0.31779849  0.95399938  0.66147502  1
  C  C1733  1  0.41754757  0.91166432  0.59413332  1
  C  C1734  1  0.40136344  0.91507898  0.55672400  1
  H  H1735  1  0.39038417  0.94586247  0.54920379  1
  C  C1736  1  0.42317270  0.94388187  0.62766871  1
  H  H1737  1  0.46686550  0.91584243  0.65257453  1
  C  C1738  1  0.39685881  0.88129476  0.52897748  1
  C  C1739  1  0.41405317  0.84321770  0.53313304  1
  C  C1740  1  0.44965349  0.94052420  0.65519057  1
  O  O1741  1  0.33885925  0.97690324  0.67179356  1
  H  H1742  1  0.32565545  0.88027705  0.54101662  1
  C  C1743  1  0.29809764  0.94091061  0.53176100  1
  O  O1744  1  0.28853354  0.96794993  0.66271712  1
  C  C1745  1  0.32453793  0.91250002  0.52636996  1
  H  H1746  1  0.45859995  0.90192369  0.53654001  1
  C  C1747  1  0.48282417  0.91318381  0.53427423  1
  H  H1748  1  0.27485891  0.86606414  0.53570454  1
  C  C1749  1  0.45655779  0.97306011  0.68135134  1
  C  C1750  1  0.48859857  0.95644416  0.52157663  1
  H  H1751  1  0.35080753  0.97647925  0.55155310  1
  C  C1752  1  0.40215752  0.97890796  0.63453302  1
  H  H1753  1  0.38032858  0.98374597  0.61597013  1
  H  H1754  1  0.47966984  0.97161719  0.69761423  1
  Cu  Cu1755  1  0.26313345  0.95572111  0.70839436  1
  H  H1756  1  0.44137387  0.99147548  0.57283831  1
  C  C1757  1  0.48895679  0.76462005  0.62345039  1
  C  C1758  1  0.26244735  0.88761104  0.55837937  1
  C  C1759  1  0.29696345  0.98126253  0.51179024  1
  C  C1760  1  0.49969004  0.75952369  0.55067925  1
  C  C1761  1  0.43801211  0.99771575  0.53965182  1
  H  H1762  1  0.39762747  0.77024299  0.72435338  1
  C  C1763  1  0.42026695  0.76229630  0.74037941  1
  C  C1764  1  0.46072913  0.98604647  0.51014234  1
  O  O1765  1  0.25070500  0.91874239  0.74813386  1
  H  H1766  1  0.41368537  0.81719169  0.51082217  1
  H  H1767  1  0.46571626  0.79283042  0.51174517  1
  H  H1768  1  0.43494097  0.82841846  0.73871731  1
  C  C1769  1  0.44064512  0.79533610  0.74631947  1
  C  C1770  1  0.25309348  0.95841219  0.58860491  1
  C  C1771  1  0.32107248  0.79288321  0.74909037  1
  O  O1772  1  0.29837259  0.79956195  0.73651795  1
  H  H1773  1  0.49495637  0.75050988  0.65331997  1
  C  C1774  1  0.47899115  0.58793052  0.75078471  1
  C  C1775  1  0.46339454  0.50773333  0.88242242  1
  H  H1776  1  0.25593335  0.52756214  0.99312155  1
  H  H1777  1  0.27415443  0.74104258  0.76370322  1
  H  H1778  1  0.38589619  0.50156282  0.86400738  1
  H  H1779  1  0.25442290  0.64373710  0.90188378  1
  C  C1780  1  0.38543689  0.51115030  0.83216774  1
  H  H1781  1  0.26088038  0.52288912  0.82292941  1
  H  H1782  1  0.46756392  0.67911390  0.76729117  1
  C  C1783  1  0.38658735  0.60927286  0.75607606  1
  C  C1784  1  0.25719479  0.61283764  0.76225171  1
  C  C1785  1  0.46131856  0.71277968  0.76172273  1
  C  C1786  1  0.41035927  0.64123113  0.76400552  1
  H  H1787  1  0.43030306  0.63534224  0.78517060  1
  C  C1788  1  0.27776894  0.57758416  0.77099372  1
  C  C1789  1  0.25522664  0.63037256  0.83612009  1
  C  C1790  1  0.38799827  0.56406677  0.77449668  1
  O  O1791  1  0.30092574  0.56766936  0.86845611  1
  H  H1792  1  0.27327260  0.60469183  0.83992426  1
  H  H1793  1  0.28316804  0.56504993  0.80127618  1
  C  C1794  1  0.39252313  0.55214923  0.81570312  1
  H  H1795  1  0.43077608  0.58854696  0.91892135  1
  H  H1796  1  0.39860918  0.57686270  0.83829142  1
  H  H1797  1  0.33237707  0.62790607  0.83833511  1
  C  C1798  1  0.46717245  0.56160580  0.78305762  1
  C  C1799  1  0.35564612  0.58409891  0.88157270  1
  C  C1800  1  0.40922893  0.63489068  0.87491099  1
  C  C1801  1  0.35409631  0.62153425  0.85635998  1
  C  C1802  1  0.38033027  0.64957834  0.85584693  1
  H  H1803  1  0.38078451  0.67649591  0.83643741  1
  H  H1804  1  0.44350464  0.55013821  0.77646220  1
  C  C1805  1  0.43978654  0.65997952  0.87325638  1
  C  C1806  1  0.38300185  0.57097933  0.90273372  1
  C  C1807  1  0.40990469  0.59740442  0.89942294  1
  C  C1808  1  0.46676856  0.64279469  0.89364649  1
  C  C1809  1  0.43557034  0.70407705  0.86210712  1
  H  H1810  1  0.38277855  0.54173858  0.92239562  1
  C  C1811  1  0.32582151  0.55856224  0.88318374  1
  H  H1812  1  0.46647247  0.61131119  0.90708336  1
  C  C1813  1  0.47918069  0.53218001  0.95055128  1
  H  H1814  1  0.41169148  0.71736923  0.85547486  1
  C  C1815  1  0.48994667  0.67610621  0.90187270  1
  C  C1816  1  0.48158646  0.53555460  0.90850681  1
  C  C1817  1  0.48353863  0.55003696  0.81846553  1
  C  C1818  1  0.46055553  0.73304544  0.86476130  1
  H  H1819  1  0.49019639  0.55572605  0.97157710  1
  C  C1820  1  0.48742859  0.71865582  0.88671791  1
  O  O1821  1  0.32790645  0.51939887  0.90741241  1
  H  H1822  1  0.30883124  0.50463909  0.89922914  1
  H  H1823  1  0.40935819  0.74686289  0.99659526  1
  H  H1824  1  0.32150234  0.50066737  0.75926880  1
  C  C1825  1  0.47022101  0.51246402  0.83960861  1
  C  C1826  1  0.48203953  0.74693018  0.76939943  1
  O  O1827  1  0.39461929  0.62557394  0.99715260  1
  H  H1828  1  0.47030941  0.99641563  0.78431049  1
  C  C1829  1  0.25357821  0.98495638  0.89656550  1
  C  C1830  1  0.48107686  0.97663619  0.97991355  1
  H  H1831  1  0.44007498  0.93314982  0.97955272  1
  C  C1832  1  0.42378380  0.79129410  0.91015303  1
  C  C1833  1  0.44922673  0.80800881  0.88731892  1
  C  C1834  1  0.32338781  0.90938951  0.89212822  1
  H  H1835  1  0.30440851  0.82957213  0.97868921  1
  H  H1836  1  0.44176932  0.78518475  0.82484692  1
  H  H1837  1  0.49352487  0.84821654  0.99130343  1
  C  C1838  1  0.32239970  0.93785738  0.92639838  1
  C  C1839  1  0.33867692  0.92387677  0.85815637  1
  C  C1840  1  0.46385507  0.93936657  0.96779954  1
  C  C1841  1  0.46608192  0.84617976  0.89427811  1
  C  C1842  1  0.38632473  0.76202922  0.99204291  1
  C  C1843  1  0.34053447  0.97657155  0.92681506  1
  C  C1844  1  0.42887070  0.85770176  0.95116946  1
  O  O1845  1  0.26348348  0.97915565  0.82597407  1
  C  C1846  1  0.32720632  0.80953710  0.97995287  1
  C  C1847  1  0.35700339  0.99024451  0.89282084  1
  C  C1848  1  0.49187296  0.82809169  0.77099903  1
  C  C1849  1  0.47224304  0.78875706  0.76052818  1
  H  H1850  1  0.42013072  0.87485382  0.97608607  1
  C  C1851  1  0.35635841  0.82607061  0.96399206  1
  H  H1852  1  0.34205594  0.99952991  0.95148070  1
  H  H1853  1  0.25932495  0.91950179  0.93665490  1
  C  C1854  1  0.35315073  0.96476627  0.85869691  1
  H  H1855  1  0.33889216  0.90555941  0.83025114  1
  O  O1856  1  0.35924026  0.95863397  0.79058947  1
  C  C1857  1  0.27398478  0.91165175  0.96279764  1
  C  C1858  1  0.45907208  0.78069990  0.84914646  1
  H  H1859  1  0.41254712  0.76128663  0.90213889  1
  C  C1860  1  0.41383137  0.81700519  0.94438142  1
  H  H1861  1  0.47653373  0.95947582  0.82566312  1
  C  C1862  1  0.48667935  0.98821640  0.80979743  1
  H  H1863  1  0.48311230  0.79152967  0.83888818  1
  H  H1864  1  0.35759693  0.85429852  0.94271379  1
  C  C1865  1  0.36487120  0.98104208  0.81876988  1
  C  C1866  1  0.38480405  0.80131347  0.96803783  1
  C  C1867  1  0.47461768  0.91170588  0.93591948  1
  C  C1868  1  0.45429144  0.87172539  0.92652771  1
  C  C1869  1  0.27097450  0.99500700  0.85963237  1
  O  O1870  1  0.48340214  0.86197802  0.75760637  1
  H  H1871  1  0.48639671  0.85788417  0.87609195  1
  H  H1872  1  0.31082839  0.87854838  0.89165895  1
  C  C1873  1  0.30605480  0.92626773  0.96501972  1
  C  C1874  1  0.26414566  0.88231611  0.99409445  1
  C  C1875  1  0.65168027  0.11975986  0.14409444  1
  C  C1876  1  0.66454841  0.07743361  0.13651080  1
  H  H1877  1  0.68996582  0.06985297  0.14071938  1
  C  C1878  1  0.64298907  0.04603709  0.12544463  1
  C  C1879  1  0.67379695  0.15549393  0.15706318  1
  C  C1880  1  0.67362007  0.19594824  0.13631822  1
  C  C1881  1  0.61869130  0.12957024  0.13922634  1
  C  C1882  1  0.61092570  0.05783622  0.12281569  1
  C  C1883  1  0.59613783  0.09861456  0.13049563  1
  H  H1884  1  0.56968508  0.10221637  0.13488493  1
  H  H1885  1  0.58828547  0.18634387  0.06716312  1
  H  H1886  1  0.63477023  0.18674190  0.01739670  1
  C  C1887  1  0.63247783  0.21267600  0.03820117  1
  C  C1888  1  0.69724885  0.14655437  0.18771884  1
  H  H1889  1  0.60812806  0.16332184  0.14421359  1
  C  C1890  1  0.59181835  0.01987929  0.10926018  1
  H  H1891  1  0.69873690  0.11412161  0.20116196  1
  C  C1892  1  0.71660052  0.18098617  0.20011456  1
  Cu  Cu1893  1  0.54168333  0.03480960  0.05652489  1
  C  C1894  1  0.60662668  0.21259415  0.06450173  1
  H  H1895  1  0.53910685  0.11860811  0.01105178  1
  H  H1896  1  0.63898039  0.18895808  0.20822236  1
  H  H1897  1  0.65555518  0.19912028  0.11215744  1
  C  C1898  1  0.71630008  0.22227638  0.18132171  1
  O  O1899  1  0.56133435  0.02340858  0.10294085  1
  H  H1900  1  0.64986056  0.01159658  0.11815291  1
  C  C1901  1  0.69497244  0.22914902  0.14866048  1
  O  O1902  1  0.52729321  0.08962160  0.07633087  1
  C  C1903  1  0.68270338  0.23739171  0.00761237  1
  C  C1904  1  0.65620038  0.24517841  0.03337144  1
  C  C1905  1  0.51699896  0.13454174  0.00603923  1
  H  H1906  1  0.73630078  0.20591421  0.01563176  1
  H  H1907  1  0.63458852  0.24597024  0.16416137  1
  O  O1908  1  0.52532709  0.04013155  0.00500782  1
  H  H1909  1  0.74834690  0.19071808  0.09211655  1
  H  H1910  1  0.73290028  0.15516148  0.14009065  1
  H  H1911  1  0.73388507  0.24883085  0.19005583  1
  C  C1912  1  0.60852766  0.24726277  0.16995406  1
  C  C1913  1  0.60904629  0.24512963  0.09467130  1
  C  C1914  1  0.59038845  0.24422545  0.20694241  1
  O  O1915  1  0.53627559  0.03523554  0.22106521  1
  C  C1916  1  0.74867671  0.17675640  0.02555530  1
  H  H1917  1  0.74113962  0.14587258  0.24916669  1
  C  C1918  1  0.63219087  0.19842035  0.23951393  1
  C  C1919  1  0.74655841  0.16685905  0.22312598  1
  C  C1920  1  0.59061945  0.24985936  0.13391739  1
  H  H1921  1  0.72748497  0.24368822  0.08068842  1
  C  C1922  1  0.51642572  0.05594542  0.23778557  1
  C  C1923  1  0.60517254  0.22537265  0.24539131  1
  C  C1924  1  0.55939215  0.26262091  0.21076084  1
  C  C1925  1  0.54387284  0.27252558  0.17289925  1
  H  H1926  1  0.54410946  0.26205040  0.10686279  1
  C  C1927  1  0.55725390  0.25889354  0.13665711  1
  C  C1928  1  0.51073785  0.29625528  0.17355791  1
  C  C1929  1  0.72375420  0.31258612  0.07270826  1
  C  C1930  1  0.65401784  0.28307445  0.05894979  1
  H  H1931  1  0.66926616  0.31570049  0.16227507  1
  C  C1932  1  0.63026459  0.28085987  0.08890589  1
  H  H1933  1  0.62690889  0.30697358  0.11095300  1
  C  C1934  1  0.69890401  0.27443397  0.12850111  1
  H  H1935  1  0.67111704  0.31049623  0.05595353  1
  C  C1936  1  0.68417041  0.31457906  0.13671883  1
  C  C1937  1  0.70939542  0.35225287  0.08394254  1
  C  C1938  1  0.68915087  0.35388036  0.11658152  1
  H  H1939  1  0.67711489  0.38575146  0.12277818  1
  C  C1940  1  0.71712293  0.39078138  0.06107993  1
  O  O1941  1  0.70220163  0.42620325  0.06509059  1
  C  C1942  1  0.60470749  0.41571926  0.12629106  1
  H  H1943  1  0.59928155  0.42895783  0.09634409  1
  H  H1944  1  0.57370417  0.37530656  0.07246477  1
  C  C1945  1  0.53447412  0.36984332  0.11527519  1
  C  C1946  1  0.56875913  0.35846164  0.10279897  1
  C  C1947  1  0.62607840  0.43765550  0.15182113  1
  C  C1948  1  0.59350362  0.37326334  0.13641184  1
  C  C1949  1  0.53080674  0.40088282  0.14624512  1
  H  H1950  1  0.57154465  0.32228808  0.09559163  1
  H  H1951  1  0.55002139  0.42130398  0.15953231  1
  C  C1952  1  0.50646828  0.35537929  0.09640480  1
  H  H1953  1  0.50826292  0.32960982  0.07446654  1
  C  C1954  1  0.63710074  0.41513313  0.18506344  1
  C  C1955  1  0.60261495  0.35247999  0.17134042  1
  H  H1956  1  0.59338107  0.31960274  0.17867717  1
  C  C1957  1  0.62933337  0.37031124  0.19404711  1
  C  C1958  1  0.52921204  0.44463871  0.02604602  1
  H  H1959  1  0.65210631  0.43432855  0.20602422  1
  H  H1960  1  0.68646956  0.45591051  0.12801567  1
  H  H1961  1  0.69248653  0.38422136  0.19451062  1
  C  C1962  1  0.68546754  0.36179345  0.21664149  1
  C  C1963  1  0.65399308  0.34622273  0.21857305  1
  Cu  Cu1964  1  0.67192444  0.43111654  0.02656174  1
  C  C1965  1  0.53991147  0.47099092  0.06038477  1
  C  C1966  1  0.71700587  0.27370394  0.09250950  1
  O  O1967  1  0.73439702  0.38716903  0.02941082  1
  C  C1968  1  0.50066059  0.41416413  0.16159434  1
  C  C1969  1  0.50823185  0.45162803  0.19038514  1
  C  C1970  1  0.63899099  0.48470952  0.14411645  1
  O  O1971  1  0.56920139  0.48050128  0.06328634  1
  O  O1972  1  0.65144265  0.48198627  0.03681335  1
  O  O1973  1  0.52031047  0.48031870  0.08808413  1
  C  C1974  1  0.50536673  0.44322074  0.23323596  1
  H  H1975  1  0.74135839  0.42699467  0.16888246  1
  C  C1976  1  0.74534424  0.48137975  0.23100584  1
  C  C1977  1  0.70974904  0.33265222  0.23004535  1
  H  H1978  1  0.51495966  0.32459464  0.15517748  1
  H  H1979  1  0.73348185  0.34055140  0.22196095  1
  H  H1980  1  0.54586992  0.34097353  0.23040497  1
  O  O1981  1  0.70394952  0.26840470  0.00275265  1
  H  H1982  1  0.54683740  0.26465342  0.23932801  1
  C  C1983  1  0.64661195  0.30720603  0.24074289  1
  C  C1984  1  0.67176973  0.48606824  0.13287431  1
  C  C1985  1  0.52684246  0.48741821  0.17765467  1
  H  H1986  1  0.73995220  0.30586188  0.04639261  1
  C  C1987  1  0.52249981  0.33721175  0.24052686  1
  H  H1988  1  0.62207438  0.29676831  0.24185783  1
  C  C1989  1  0.50112308  0.31381024  0.21589261  1
  H  H1990  1  0.74609853  0.47079173  0.02343790  1
  C  C1991  1  0.71668796  0.46563261  0.24856914  1
  H  H1992  1  0.74728306  0.36706886  0.13048570  1
  H  H1993  1  0.53150617  0.49390883  0.14476077  1
  H  H1994  1  0.57439350  0.09719356  0.25223167  1
  H  H1995  1  0.60761427  0.00996419  0.42414642  1
  O  O1996  1  0.73268045  0.04588072  0.25964985  1
  H  H1997  1  0.73833079  0.00494650  0.47203396  1
  Cu  Cu1998  1  0.74059263  0.12829955  0.33555842  1
  C  C1999  1  0.52200551  0.09656122  0.25899215  1
  C  C2000  1  0.55205968  0.11507335  0.26335940  1
  H  H2001  1  0.57788221  0.17022840  0.28789538  1
  C  C2002  1  0.68388489  0.03691710  0.28924597  1
  H  H2003  1  0.67152268  0.16757278  0.27095109  1
  C  C2004  1  0.71131004  0.06381753  0.28193012  1
  C  C2005  1  0.55485666  0.15406297  0.28385547  1
  C  C2006  1  0.63410562  0.02761002  0.32453500  1
  O  O2007  1  0.71216271  0.10056576  0.29838245  1
  C  C2008  1  0.58824917  0.02318843  0.40410156  1
  H  H2009  1  0.61380570  0.03847602  0.34164802  1
  C  C2010  1  0.65924430  0.05462777  0.31341120  1
  H  H2011  1  0.65986671  0.09064524  0.32252767  1
  H  H2012  1  0.52579474  0.07255229  0.33376595  1
  C  C2013  1  0.53631814  0.01873968  0.37206428  1
  Cu  Cu2014  1  0.68782875  0.05195845  0.39268282  1
  C  C2015  1  0.64349212  0.20354965  0.31275707  1
  O  O2016  1  0.65581649  0.20970552  0.38449434  1
  C  C2017  1  0.66392651  0.19817823  0.34921507  1
  O  O2018  1  0.68995043  0.18098696  0.34218543  1
  C  C2019  1  0.54365187  0.06049622  0.35285057  1
  H  H2020  1  0.57538673  0.11582488  0.35098349  1
  C  C2021  1  0.57053231  0.08267214  0.36091433  1
  Cu  Cu2022  1  0.64604016  0.16483780  0.41631858  1
  O  O2023  1  0.63160947  0.12214343  0.38019721  1
  C  C2024  1  0.62419672  0.08419380  0.39133668  1
  C  C2025  1  0.59394006  0.06405218  0.38575729  1
  O  O2026  1  0.70753096  0.10456246  0.40186010  1
  O  O2027  1  0.67885379  0.13902865  0.45002766  1
  O  O2028  1  0.64549371  0.06018704  0.40835534  1
  H  H2029  1  0.56655833  0.16854959  0.39625211  1
  C  C2030  1  0.70475230  0.12429300  0.43564476  1
  C  C2031  1  0.57730388  0.17013208  0.42656850  1
  H  H2032  1  0.58146735  0.10194018  0.43827837  1
  C  C2033  1  0.58524321  0.21078144  0.44274449  1
  C  C2034  1  0.58485640  0.13432922  0.44941977  1
  C  C2035  1  0.52597239  0.17714835  0.29726480  1
  H  H2036  1  0.61544174  0.05416363  0.46265136  1
  C  C2037  1  0.64992738  0.18716483  0.27418278  1
  C  C2038  1  0.61673894  0.22955859  0.31622996  1
  C  C2039  1  0.55952283  0.00307622  0.40032103  1
  C  C2040  1  0.73366484  0.13816293  0.45502425  1
  Cu  Cu2041  1  0.73072581  0.20602810  0.33961893  1
  C  C2042  1  0.61703342  0.05749609  0.49532941  1
  C  C2043  1  0.60296990  0.13625138  0.48600219  1
  C  C2044  1  0.60129165  0.21453955  0.48045135  1
  O  O2045  1  0.56139616  0.23648534  0.37802750  1
  C  C2046  1  0.52677053  0.22109693  0.30725359  1
  O  O2047  1  0.72148231  0.23024466  0.28784681  1
  C  C2048  1  0.73110021  0.16789000  0.48733829  1
  C  C2049  1  0.74387136  0.00481417  0.38895038  1
  H  H2050  1  0.61480772  0.24269884  0.34821651  1
  C  C2051  1  0.59723367  0.24280897  0.28394727  1
  C  C2052  1  0.57772825  0.24861375  0.41801236  1
  H  H2053  1  0.60672317  0.24664709  0.49176590  1
  O  O2054  1  0.71553377  0.00911184  0.40220662  1
  H  H2055  1  0.52550854  0.00422148  0.49953916  1
  H  H2056  1  0.50038531  0.40521037  0.34235192  1
  H  H2057  1  0.74645446  0.43116911  0.36120008  1
  H  H2058  1  0.53819350  0.41842353  0.39838997  1
  H  H2059  1  0.55167547  0.29910391  0.36744265  1
  C  C2060  1  0.53585437  0.37174697  0.30436609  1
  H  H2061  1  0.73663666  0.46368781  0.42296004  1
  C  C2062  1  0.52624871  0.39491830  0.33928629  1
  C  C2063  1  0.54660411  0.40300902  0.37067092  1
  H  H2064  1  0.50547940  0.31495005  0.49153238  1
  C  C2065  1  0.51229101  0.49490362  0.39346766  1
  H  H2066  1  0.66977500  0.48507986  0.26763082  1
  C  C2067  1  0.69215780  0.49459861  0.25432766  1
  C  C2068  1  0.53010044  0.26185078  0.32099417  1
  C  C2069  1  0.54881664  0.26548022  0.35753987  1
  C  C2070  1  0.59867931  0.40553156  0.40541661  1
  C  C2071  1  0.58005401  0.39469926  0.36795032  1
  H  H2072  1  0.71042055  0.43231152  0.25728289  1
  H  H2073  1  0.52804689  0.45765267  0.29182068  1
  C  C2074  1  0.56935525  0.36474334  0.30072650  1
  C  C2075  1  0.59064195  0.37575845  0.33103279  1
  C  C2076  1  0.71887649  0.48521358  0.41071113  1
  C  C2077  1  0.66993350  0.28334770  0.25908981  1
  H  H2078  1  0.58043048  0.34758858  0.27484223  1
  Cu  Cu2079  1  0.58584391  0.47587960  0.45596199  1
  H  H2080  1  0.50484394  0.45869499  0.44815340  1
  H  H2081  1  0.52015206  0.29102622  0.30403024  1
  C  C2082  1  0.52410596  0.46642481  0.26042421  1
  C  C2083  1  0.72790651  0.26458685  0.26459750  1
  O  O2084  1  0.58120937  0.28576203  0.42682400  1
  O  O2085  1  0.62720445  0.40266344  0.40395613  1
  H  H2086  1  0.61738934  0.37016027  0.32728979  1
  C  C2087  1  0.51028345  0.35391185  0.27798225  1
  C  C2088  1  0.70183424  0.29413409  0.25080666  1
  H  H2089  1  0.57940701  0.26776853  0.28907448  1
  H  H2090  1  0.66420961  0.25871379  0.28020380  1
  O  O2091  1  0.58574468  0.42032725  0.43900004  1
  H  H2092  1  0.68069539  0.46788137  0.45137093  1
  C  C2093  1  0.68680117  0.48553830  0.42329987  1
  C  C2094  1  0.50260568  0.34868136  0.49985503  1
  O  O2095  1  0.62584567  0.49718743  0.44677109  1
  C  C2096  1  0.60661173  0.13723733  0.71179426  1
  C  C2097  1  0.57836274  0.11821718  0.69681957  1
  H  H2098  1  0.56988678  0.12949018  0.66627783  1
  H  H2099  1  0.59717599  0.13431156  0.57011350  1
  C  C2100  1  0.60424082  0.10272972  0.55611706  1
  C  C2101  1  0.54523705  0.07914805  0.61134888  1
  H  H2102  1  0.55213994  0.11011589  0.59669991  1
  C  C2103  1  0.62405779  0.16615025  0.68508969  1
  H  H2104  1  0.61207623  0.09380972  0.64336146  1
  C  C2105  1  0.60910813  0.06549657  0.57795089  1
  O  O2106  1  0.61180543  0.17318261  0.64936078  1
  C  C2107  1  0.56994582  0.05333672  0.62865355  1
  C  C2108  1  0.60548008  0.06522132  0.62654645  1
  O  O2109  1  0.64924084  0.18323115  0.69600191  1
  Cu  Cu2110  1  0.69172665  0.17750753  0.68138408  1
  C  C2111  1  0.56391015  0.08291702  0.71573763  1
  H  H2112  1  0.54305640  0.06681264  0.70341298  1
  O  O2113  1  0.73157890  0.16491237  0.66504462  1
  H  H2114  1  0.61902530  0.18102227  0.53220378  1
  C  C2115  1  0.62686901  0.02054145  0.51948924  1
  O  O2116  1  0.73456474  0.15557302  0.59835804  1
  C  C2117  1  0.51341521  0.06488388  0.61577709  1
  C  C2118  1  0.62073932  0.02632691  0.56222378  1
  H  H2119  1  0.61892015  0.03858613  0.64121206  1
  H  H2120  1  0.54486758  0.18113298  0.73755601  1
  C  C2121  1  0.60691374  0.09730374  0.51347599  1
  C  C2122  1  0.74676897  0.16444198  0.62912711  1
  C  C2123  1  0.50652268  0.02528342  0.63562167  1
  Cu  Cu2124  1  0.59841031  0.22069322  0.62263149  1
  C  C2125  1  0.56384854  0.01011448  0.64315820  1
  O  O2126  1  0.70230407  0.21419500  0.72369723  1
  O  O2127  1  0.60906888  0.24620546  0.57427624  1
  C  C2128  1  0.60762130  0.17793210  0.50241633  1
  H  H2129  1  0.62867992  0.00242635  0.58455497  1
  H  H2130  1  0.70743936  0.17379088  0.50147901  1
  O  O2131  1  0.52621260  0.25225010  0.67829909  1
  C  C2132  1  0.71694758  0.25205465  0.72199030  1
  C  C2133  1  0.54405285  0.49624490  0.52689593  1
  O  O2134  1  0.56280652  0.25388685  0.63200176  1
  C  C2135  1  0.55020665  0.26710295  0.66686928  1
  O  O2136  1  0.65780586  0.26964261  0.57523595  1
  C  C2137  1  0.60652824  0.46468855  0.52939996  1
  H  H2138  1  0.54284451  0.35782398  0.60380369  1
  C  C2139  1  0.58512567  0.39285133  0.62477317  1
  C  C2140  1  0.63075851  0.27903708  0.57598267  1
  C  C2141  1  0.62010168  0.32124640  0.59272969  1
  C  C2142  1  0.63625601  0.35395811  0.61379961  1
  H  H2143  1  0.66165824  0.35245683  0.61593469  1
  C  C2144  1  0.58638823  0.32513396  0.58753907  1
  H  H2145  1  0.57526411  0.29721988  0.57153237  1
  C  C2146  1  0.56892840  0.35767778  0.60514020  1
  C  C2147  1  0.56801044  0.29605830  0.69598424  1
  C  C2148  1  0.61902708  0.39103021  0.62681959  1
  C  C2149  1  0.56113382  0.42527481  0.64188532  1
  H  H2150  1  0.63484291  0.41534468  0.63855918  1
  H  H2151  1  0.54595198  0.37906459  0.68669544  1
  C  C2152  1  0.54110047  0.41029041  0.67287873  1
  C  C2153  1  0.51544282  0.43702966  0.68533321  1
  H  H2154  1  0.60685431  0.30363488  0.65120524  1
  C  C2155  1  0.59828199  0.30730461  0.68361152  1
  H  H2156  1  0.63969944  0.34189912  0.70547343  1
  C  C2157  1  0.61522802  0.33228514  0.71073463  1
  C  C2158  1  0.54923157  0.45121084  0.52095032  1
  C  C2159  1  0.58105345  0.43587374  0.52162851  1
  C  C2160  1  0.51056352  0.48042638  0.67089645  1
  C  C2161  1  0.64053774  0.44765992  0.53204621  1
  C  C2162  1  0.55735593  0.46726720  0.62609691  1
  C  C2163  1  0.69570556  0.46554312  0.52972153  1
  C  C2164  1  0.66481167  0.47823040  0.52406370  1
  O  O2165  1  0.70823539  0.27742586  0.69749910  1
  C  C2166  1  0.70304435  0.42345042  0.54155873  1
  C  C2167  1  0.52115443  0.42043488  0.51859860  1
  C  C2168  1  0.73611123  0.40613419  0.54561489  1
  O  O2169  1  0.67844453  0.46204576  0.68553721  1
  H  H2170  1  0.74599325  0.42018954  0.67513273  1
  H  H2171  1  0.58653456  0.40174943  0.52288259  1
  O  O2172  1  0.62934012  0.48122364  0.67486936  1
  C  C2173  1  0.53042009  0.49226952  0.63936511  1
  H  H2174  1  0.57307088  0.48166539  0.60095767  1
  H  H2175  1  0.63216201  0.49005837  0.73735216  1
  C  C2176  1  0.65801040  0.48187154  0.66731286  1
  H  H2177  1  0.68693195  0.35781651  0.55770026  1
  H  H2178  1  0.63047031  0.38027494  0.55331753  1
  C  C2179  1  0.64788298  0.40434478  0.54346595  1
  C  C2180  1  0.67969064  0.39129041  0.54864948  1
  C  C2181  1  0.55428928  0.30694666  0.73254342  1
  H  H2182  1  0.52239821  0.37739184  0.74667488  1
  H  H2183  1  0.53036594  0.29501074  0.74027514  1
  H  H2184  1  0.71570588  0.48937807  0.52563852  1
  H  H2185  1  0.56146417  0.48913132  0.70437822  1
  O  O2186  1  0.74176947  0.36780875  0.55004500  1
  C  C2187  1  0.74806922  0.41109086  0.73904734  1
  C  C2188  1  0.60255130  0.34698719  0.74775246  1
  H  H2189  1  0.61448271  0.43324755  0.74900531  1
  H  H2190  1  0.72315714  0.41373154  0.74544418  1
  H  H2191  1  0.55223312  0.36774499  0.50843894  1
  C  C2192  1  0.52800092  0.37654666  0.50896674  1
  C  C2193  1  0.57908753  0.06859335  0.75144251  1
  C  C2194  1  0.61712851  0.12586077  0.75159919  1
  H  H2195  1  0.63638103  0.14344826  0.76661627  1
  H  H2196  1  0.61138584  0.00039000  0.78249452  1
  C  C2197  1  0.74990434  0.22607511  0.78091056  1
  H  H2198  1  0.73701704  0.19631573  0.77848015  1
  C  C2199  1  0.60389929  0.09220653  0.77179473  1
  C  C2200  1  0.56423152  0.02636239  0.76765881  1
  H  H2201  1  0.51363650  0.04563843  0.76193802  1
  C  C2202  1  0.53594185  0.20457274  0.76129542  1
  C  C2203  1  0.53123702  0.02111015  0.77266424  1
  H  H2204  1  0.61385634  0.08029117  0.80004283  1
  O  O2205  1  0.73491646  0.18519948  0.93690136  1
  H  H2206  1  0.56474043  0.06611211  0.90288307  1
  H  H2207  1  0.53444515  0.04735025  0.83593240  1
  C  C2208  1  0.51074145  0.05514814  0.84957048  1
  C  C2209  1  0.50785431  0.09389304  0.87364085  1
  C  C2210  1  0.53746212  0.16725241  0.88210941  1
  C  C2211  1  0.53690000  0.12130709  0.88595911  1
  C  C2212  1  0.56481336  0.10176700  0.90089706  1
  H  H2213  1  0.51549821  0.18264392  0.87175612  1
  H  H2214  1  0.61015249  0.10729535  0.92746167  1
  C  C2215  1  0.58983284  0.17214753  0.91411971  1
  C  C2216  1  0.59006101  0.12635977  0.91577122  1
  C  C2217  1  0.62037201  0.19396216  0.92798317  1
  C  C2218  1  0.56286420  0.19169108  0.89661382  1
  H  H2219  1  0.56314379  0.22779251  0.89432999  1
  O  O2220  1  0.64300407  0.16784325  0.93988491  1
  Cu  Cu2221  1  0.68858528  0.18217484  0.93667550  1
  H  H2222  1  0.53118552  0.16916773  0.95264373  1
  H  H2223  1  0.62940876  0.15033291  0.87146142  1
  H  H2224  1  0.57517057  0.15587629  0.83647295  1
  C  C2225  1  0.62596762  0.16980185  0.84493595  1
  C  C2226  1  0.59574909  0.17499624  0.82684183  1
  O  O2227  1  0.68696862  0.16501931  0.88064781  1
  C  C2228  1  0.65139990  0.19472029  0.83090085  1
  C  C2229  1  0.55761069  0.22069686  0.78956036  1
  C  C2230  1  0.59138529  0.20547845  0.79569731  1
  C  C2231  1  0.68330731  0.19240596  0.85180799  1
  C  C2232  1  0.61737555  0.23127982  0.78123008  1
  O  O2233  1  0.55839359  0.01883437  0.95935112  1
  C  C2234  1  0.50544932  0.22374731  0.76308574  1
  O  O2235  1  0.70304354  0.21794258  0.84192117  1
  C  C2236  1  0.64724324  0.22418795  0.79862025  1
  O  O2237  1  0.62531319  0.23159776  0.92141084  1
  C  C2238  1  0.53219097  0.01731439  0.97438998  1
  C  C2239  1  0.51328273  0.16467385  0.97481085  1
  O  O2240  1  0.68681929  0.20088904  0.99070884  1
  H  H2241  1  0.66687762  0.24341364  0.78812490  1
  H  H2242  1  0.60341624  0.48379810  0.81917567  1
  C  C2243  1  0.52712729  0.47436704  0.78218483  1
  C  C2244  1  0.50947751  0.29997929  0.85751011  1
  H  H2245  1  0.53140268  0.31202986  0.87287000  1
  C  C2246  1  0.54977385  0.25118169  0.82014897  1
  H  H2247  1  0.51710624  0.25240726  0.93518550  1
  C  C2248  1  0.72977458  0.38172386  0.82281785  1
  C  C2249  1  0.74098065  0.25958215  0.75502919  1
  C  C2250  1  0.65630825  0.38193467  0.96065452  1
  H  H2251  1  0.63723093  0.31104651  0.80992870  1
  C  C2252  1  0.65146755  0.49176424  0.80058498  1
  H  H2253  1  0.61468661  0.25549623  0.75647263  1
  C  C2254  1  0.72793968  0.39578597  0.89687997  1
  C  C2255  1  0.59127541  0.37392109  0.88594859  1
  Cu  Cu2256  1  0.70118145  0.32100807  0.97726969  1
  H  H2257  1  0.56666958  0.26149622  0.84320221  1
  C  C2258  1  0.63112629  0.39508954  0.93408350  1
  C  C2259  1  0.60589853  0.45125422  0.89688089  1
  C  C2260  1  0.51840634  0.26834286  0.82155951  1
  H  H2261  1  0.51208675  0.49157486  0.76001987  1
  C  C2262  1  0.51501809  0.44050104  0.80728118  1
  C  C2263  1  0.64522605  0.44384930  0.80559247  1
  H  H2264  1  0.63939136  0.46437352  0.94676428  1
  H  H2265  1  0.56101406  0.34713727  0.78718318  1
  H  H2266  1  0.57622984  0.35052467  0.87018983  1
  C  C2267  1  0.61280598  0.36196490  0.91506421  1
  C  C2268  1  0.55834689  0.48932411  0.78797646  1
  C  C2269  1  0.66245639  0.41711182  0.83418948  1
  C  C2270  1  0.58680520  0.41940456  0.87654558  1
  C  C2271  1  0.57952788  0.47137008  0.81737242  1
  H  H2272  1  0.54749090  0.42430712  0.92757816  1
  C  C2273  1  0.64010734  0.34680426  0.80665228  1
  H  H2274  1  0.57303882  0.45618107  0.98959055  1
  C  C2275  1  0.54897386  0.44301390  0.99100044  1
  H  H2276  1  0.69156159  0.31522779  0.84949770  1
  C  C2277  1  0.66104922  0.37121925  0.83154568  1
  H  H2278  1  0.67994289  0.43336166  0.85336576  1
  C  C2279  1  0.62718793  0.41960169  0.77595141  1
  H  H2280  1  0.52893825  0.39618948  0.85904333  1
  O  O2281  1  0.74408852  0.32387829  0.95547178  1
  C  C2282  1  0.53477680  0.42633098  0.95687986  1
  C  C2283  1  0.50343595  0.40686916  0.95718564  1
  C  C2284  1  0.62459238  0.37296355  0.77705917  1
  C  C2285  1  0.71474459  0.37726161  0.86017928  1
  H  H2286  1  0.60201560  0.48612943  0.89052266  1
  O  O2287  1  0.66255335  0.34232003  0.96736025  1
  H  H2288  1  0.72009995  0.36410619  0.79696325  1
  C  C2289  1  0.56677892  0.43621905  0.84163813  1
  H  H2290  1  0.67432863  0.34494141  0.89090613  1
  C  C2291  1  0.68504535  0.34751207  0.86062145  1
  C  C2292  1  0.53642693  0.42079262  0.83551147  1
  H  H2293  1  0.71265110  0.39636542  0.92344566  1
  H  H2294  1  0.50408613  0.44314648  0.88330819  1
  H  H2295  1  0.73015238  0.41863519  0.96693560  1
  C  C2296  1  0.57078485  0.33489102  0.75832924  1
  O  O2297  1  0.67244248  0.41212315  0.97554970  1
  H  H2298  1  0.61806636  0.32734041  0.92248270  1
  C  C2299  1  0.62571133  0.44012908  0.92884168  1
  Cu  Cu2300  1  0.65929475  0.67616172  0.15827919  1
  C  C2301  1  0.67888479  0.60384902  0.11066607  1
  O  O2302  1  0.66013731  0.63819631  0.11310058  1
  O  O2303  1  0.70617705  0.60350054  0.10032160  1
  O  O2304  1  0.61704573  0.67727097  0.15408482  1
  H  H2305  1  0.61526657  0.58971331  0.13933004  1
  C  C2306  1  0.62966488  0.56043574  0.13208014  1
  C  C2307  1  0.66219063  0.56295168  0.11866810  1
  C  C2308  1  0.56782215  0.70106968  0.17954285  1
  C  C2309  1  0.60178579  0.69082537  0.18461111  1
  O  O2310  1  0.57325565  0.63982386  0.06809987  1
  O  O2311  1  0.61742321  0.69643847  0.21641818  1
  C  C2312  1  0.54920378  0.68567286  0.14636438  1
  H  H2313  1  0.56080783  0.66789259  0.11970476  1
  H  H2314  1  0.71027804  0.66574738  0.09065010  1
  H  H2315  1  0.70672215  0.52762919  0.11012048  1
  C  C2316  1  0.68168905  0.52630143  0.11981241  1
  C  C2317  1  0.51649674  0.69263347  0.14430498  1
  O  O2318  1  0.69938391  0.67615882  0.16611077  1
  C  C2319  1  0.61830910  0.52054012  0.14293107  1
  Cu  Cu2320  1  0.58220450  0.53432880  0.04152204  1
  C  C2321  1  0.71762931  0.69824019  0.08569285  1
  C  C2322  1  0.57225479  0.62599054  0.03376270  1
  C  C2323  1  0.55284250  0.71667730  0.21401350  1
  H  H2324  1  0.52912376  0.69512024  0.03325583  1
  C  C2325  1  0.71804977  0.71501134  0.04224947  1
  H  H2326  1  0.60965361  0.69559010  0.04581925  1
  H  H2327  1  0.59245930  0.51752168  0.15007569  1
  C  C2328  1  0.51978890  0.72620101  0.21464815  1
  H  H2329  1  0.72560839  0.58869437  0.21642471  1
  C  C2330  1  0.72386097  0.55356044  0.22544664  1
  Cu  Cu2331  1  0.64695816  0.65388499  0.23432631  1
  H  H2332  1  0.55125711  0.54702864  0.19576417  1
  C  C2333  1  0.62357518  0.70740542  0.01981931  1
  O  O2334  1  0.58937467  0.59083777  0.02522753  1
  C  C2335  1  0.54206945  0.51550076  0.20517546  1
  C  C2336  1  0.71482830  0.71225723  0.15935316  1
  C  C2337  1  0.74785061  0.52376004  0.21663343  1
  C  C2338  1  0.53186112  0.67736640  0.00256104  1
  C  C2339  1  0.72117513  0.72862247  0.11515852  1
  H  H2340  1  0.69188433  0.71983817  0.03043193  1
  H  H2341  1  0.72833794  0.68905361  0.02365402  1
  H  H2342  1  0.56671620  0.72535766  0.24109294  1
  C  C2343  1  0.50335366  0.71484690  0.17862470  1
  H  H2344  1  0.70597541  0.50810765  0.01480710  1
  H  H2345  1  0.50017253  0.67875116  0.12021732  1
  O  O2346  1  0.72230194  0.73464039  0.18710406  1
  H  H2347  1  0.50775108  0.73869208  0.24278248  1
  C  C2348  1  0.63724075  0.74971969  0.01967460  1
  C  C2349  1  0.69586060  0.53885038  0.24378303  1
  C  C2350  1  0.54131616  0.50239466  0.24563844  1
  O  O2351  1  0.61238736  0.51275915  0.00390474  1
  C  C2352  1  0.64073530  0.50632420  0.00951149  1
  C  C2353  1  0.50125148  0.83015785  0.02017657  1
  C  C2354  1  0.63156044  0.77525303  0.05701263  1
  C  C2355  1  0.62765287  0.79949393  0.08480658  1
  H  H2356  1  0.62396408  0.82224910  0.10897619  1
  C  C2357  1  0.73518921  0.75967224  0.03653993  1
  C  C2358  1  0.73239669  0.77102621  0.10866296  1
  H  H2359  1  0.57571688  0.77261595  0.12152598  1
  H  H2360  1  0.56752075  0.76982175  0.05016617  1
  H  H2361  1  0.54107097  0.76332720  0.15028566  1
  C  C2362  1  0.55245031  0.78746754  0.12942044  1
  H  H2363  1  0.60904697  0.81565345  0.17510685  1
  C  C2364  1  0.54444386  0.78624164  0.05312258  1
  C  C2365  1  0.53132433  0.79540163  0.09166116  1
  C  C2366  1  0.55973098  0.82979551  0.15285274  1
  C  C2367  1  0.53924522  0.90090145  0.17897880  1
  C  C2368  1  0.58969260  0.83939230  0.17010879  1
  C  C2369  1  0.59444216  0.88039828  0.18837788  1
  C  C2370  1  0.53454919  0.85976034  0.16098084  1
  H  H2371  1  0.65994708  0.91439483  0.16866541  1
  C  C2372  1  0.65625493  0.90084235  0.19981293  1
  C  C2373  1  0.57090128  0.91317554  0.19216534  1
  C  C2374  1  0.50997249  0.97051127  0.16191145  1
  H  H2375  1  0.57742695  0.94423830  0.20501479  1
  C  C2376  1  0.62640103  0.88425381  0.21008771  1
  H  H2377  1  0.70623509  0.91390828  0.21747041  1
  C  C2378  1  0.50889602  0.92829073  0.17900671  1
  C  C2379  1  0.52831342  0.80290405  0.01795620  1
  H  H2380  1  0.56523440  0.80794181  0.22104610  1
  C  C2381  1  0.68320059  0.90155060  0.22387531  1
  H  H2382  1  0.51049226  0.85351817  0.14890556  1
  C  C2383  1  0.74264964  0.78475745  0.07035056  1
  H  H2384  1  0.73515025  0.78914129  0.13584850  1
  H  H2385  1  0.61742991  0.78245428  0.24556667  1
  H  H2386  1  0.53244403  0.98501898  0.15250309  1
  H  H2387  1  0.50264834  0.90647365  0.09464818  1
  O  O2388  1  0.60450873  0.98491796  0.10415542  1
  H  H2389  1  0.70072134  0.98487047  0.24959160  1
  H  H2390  1  0.53081814  0.96228221  0.24192014  1
  O  O2391  1  0.67571293  0.60971315  0.25092145  1
  H  H2392  1  0.50994105  0.53735158  0.33856287  1
  C  C2393  1  0.50461971  0.69782934  0.40277424  1
  C  C2394  1  0.74773914  0.55649079  0.47285171  1
  C  C2395  1  0.67114045  0.56946428  0.25484230  1
  C  C2396  1  0.72717841  0.50897283  0.37445700  1
  C  C2397  1  0.51470175  0.70395842  0.36314861  1
  O  O2398  1  0.56064854  0.51552938  0.31176775  1
  O  O2399  1  0.57450360  0.56165984  0.26528051  1
  C  C2400  1  0.66716483  0.51497426  0.40164320  1
  H  H2401  1  0.51821479  0.66978146  0.46149654  1
  O  O2402  1  0.64550132  0.55632841  0.27105793  1
  C  C2403  1  0.72918963  0.57669378  0.44240386  1
  C  C2404  1  0.52517734  0.68064632  0.43062985  1
  C  C2405  1  0.54703290  0.69838006  0.35192061  1
  C  C2406  1  0.56860179  0.68325532  0.38020310  1
  C  C2407  1  0.55736352  0.67149133  0.41922685  1
  Cu  Cu2408  1  0.60897950  0.58667827  0.29559672  1
  C  C2409  1  0.63243077  0.63094572  0.38607383  1
  O  O2410  1  0.60879639  0.64254754  0.31202994  1
  C  C2411  1  0.64960105  0.65437764  0.35721357  1
  C  C2412  1  0.63544176  0.66188917  0.31825372  1
  O  O2413  1  0.64750002  0.68058009  0.28922944  1
  C  C2414  1  0.68234510  0.66611500  0.36345520  1
  H  H2415  1  0.60815727  0.62333459  0.38119765  1
  C  C2416  1  0.64898472  0.61773626  0.42057598  1
  H  H2417  1  0.69461614  0.68597827  0.34065207  1
  C  C2418  1  0.68199495  0.62225016  0.42393465  1
  C  C2419  1  0.69884615  0.64947139  0.39530326  1
  H  H2420  1  0.72259238  0.65857164  0.40355877  1
  H  H2421  1  0.59331394  0.67729084  0.36985271  1
  H  H2422  1  0.55481675  0.70426384  0.32145211  1
  O  O2423  1  0.61796003  0.54350825  0.39580577  1
  C  C2424  1  0.67704142  0.54030423  0.36836272  1
  H  H2425  1  0.66029788  0.56452419  0.35476034  1
  C  C2426  1  0.55805412  0.52938329  0.27556968  1
  H  H2427  1  0.61304948  0.70351566  0.45447221  1
  C  C2428  1  0.57619656  0.65330525  0.45554527  1
  H  H2429  1  0.63383276  0.59947782  0.44373652  1
  Cu  Cu2430  1  0.58796751  0.53248339  0.35222386  1
  C  C2431  1  0.60404396  0.67467668  0.47084350  1
  C  C2432  1  0.69947742  0.59361023  0.45432585  1
  C  C2433  1  0.63421816  0.51838994  0.41540491  1
  O  O2434  1  0.55379483  0.54656804  0.38688328  1
  H  H2435  1  0.54215861  0.59920548  0.46475525  1
  C  C2436  1  0.56207409  0.61820030  0.47792282  1
  H  H2437  1  0.71512390  0.55119697  0.32307938  1
  C  C2438  1  0.70788215  0.53765354  0.35272111  1
  H  H2439  1  0.73691323  0.57623877  0.41207317  1
  H  H2440  1  0.64821822  0.73858089  0.47798796  1
  C  C2441  1  0.53990990  0.52039620  0.40862244  1
  C  C2442  1  0.68546494  0.58747931  0.49293187  1
  O  O2443  1  0.54996073  0.50750932  0.44306669  1
  O  O2444  1  0.56185502  0.74096528  0.48865993  1
  C  C2445  1  0.50042983  0.50996652  0.35633691  1
  O  O2446  1  0.50088973  0.72655444  0.29744588  1
  H  H2447  1  0.50639934  0.97656521  0.28609050  1
  H  H2448  1  0.59785171  0.86395426  0.26165019  1
  C  C2449  1  0.59920792  0.84186668  0.45645953  1
  C  C2450  1  0.50284234  0.95615154  0.38074989  1
  H  H2451  1  0.73128446  0.75500768  0.41115969  1
  C  C2452  1  0.56945052  0.80149315  0.25386795  1
  C  C2453  1  0.50428687  0.90651662  0.26861567  1
  C  C2454  1  0.60597110  0.78615923  0.31059802  1
  C  C2455  1  0.63583992  0.78182682  0.33235755  1
  H  H2456  1  0.58262884  0.99186673  0.27157801  1
  C  C2457  1  0.62265990  0.87285260  0.25140185  1
  C  C2458  1  0.60644846  0.95397135  0.31517090  1
  H  H2459  1  0.52241929  0.94112665  0.39828665  1
  C  C2460  1  0.57722429  0.80791692  0.45601297  1
  C  C2461  1  0.54393928  0.80058259  0.28234469  1
  H  H2462  1  0.65579355  0.93832234  0.26812508  1
  O  O2463  1  0.66160748  0.78823835  0.31297471  1
  O  O2464  1  0.63771728  0.77617945  0.37040244  1
  C  C2465  1  0.55052643  0.94045791  0.30087740  1
  H  H2466  1  0.61726396  0.84275481  0.47943763  1
  C  C2467  1  0.57964907  0.77528750  0.48634693  1
  H  H2468  1  0.55269662  0.88045551  0.26457951  1
  O  O2469  1  0.68170586  0.84910759  0.43285736  1
  H  H2470  1  0.64335928  0.85962026  0.30780901  1
  C  C2471  1  0.52206088  0.95148630  0.27225201  1
  C  C2472  1  0.59886202  0.78936219  0.26883872  1
  C  C2473  1  0.63358027  0.98580591  0.30822935  1
  C  C2474  1  0.55197470  0.83776961  0.39610128  1
  C  C2475  1  0.67852775  0.88542379  0.26323860  1
  H  H2476  1  0.62994699  0.91383702  0.35923942  1
  O  O2477  1  0.69620701  0.86707342  0.32597572  1
  H  H2478  1  0.52595402  0.89500872  0.33894343  1
  C  C2479  1  0.55452309  0.80489809  0.42471691  1
  C  C2480  1  0.57639218  0.86942429  0.39477817  1
  C  C2481  1  0.64833202  0.87152103  0.27654400  1
  C  C2482  1  0.70405568  0.88534441  0.29385687  1
  C  C2483  1  0.52796754  0.87374312  0.26325724  1
  H  H2484  1  0.52668579  0.79102699  0.34478581  1
  O  O2485  1  0.73033265  0.90339805  0.28815817  1
  C  C2486  1  0.57700468  0.89825706  0.35754936  1
  O  O2487  1  0.73635814  0.81258548  0.36585329  1
  H  H2488  1  0.55641549  0.97029165  0.41030340  1
  O  O2489  1  0.67756932  0.82158167  0.49360535  1
  C  C2490  1  0.54951555  0.90992680  0.33230292  1
  C  C2491  1  0.65745890  0.89334756  0.48455200  1
  H  H2492  1  0.61638819  0.90054991  0.42523612  1
  H  H2493  1  0.53134843  0.84102070  0.37435823  1
  H  H2494  1  0.67464432  0.92118110  0.43065740  1
  C  C2495  1  0.54897882  0.79043759  0.32356820  1
  C  C2496  1  0.67361897  0.85167113  0.47174458  1
  H  H2497  1  0.70429920  0.75811296  0.49051528  1
  H  H2498  1  0.53883361  0.77604154  0.42677633  1
  C  C2499  1  0.60553240  0.92158929  0.34618170  1
  C  C2500  1  0.65151401  0.97071731  0.46701311  1
  Cu  Cu2501  1  0.66101117  0.81133616  0.39965331  1
  Cu  Cu2502  1  0.69822877  0.80575244  0.33917378  1
  C  C2503  1  0.51614492  0.83161685  0.27064305  1
  C  C2504  1  0.57889797  0.96413755  0.29245981  1
  H  H2505  1  0.58517349  0.77483005  0.36876705  1
  C  C2506  1  0.65979508  0.92831356  0.45744201  1
  Cu  Cu2507  1  0.74124161  0.95168878  0.32238075  1
  C  C2508  1  0.57977592  0.78248577  0.33683472  1
  C  C2509  1  0.59901657  0.87434284  0.42674725  1
  C  C2510  1  0.65694692  0.97098337  0.28113848  1
  H  H2511  1  0.65506036  0.99778728  0.44363138  1
  C  C2512  1  0.50552765  0.99666092  0.36293278  1
  C  C2513  1  0.68241229  0.99572694  0.27050458  1
  C  C2514  1  0.69277779  0.55416664  0.56553094  1
  C  C2515  1  0.70432382  0.56819360  0.52304232  1
  H  H2516  1  0.61385198  0.62240064  0.56182361  1
  C  C2517  1  0.55974651  0.57536634  0.54407113  1
  H  H2518  1  0.56502590  0.58221851  0.57629088  1
  C  C2519  1  0.65981209  0.55397816  0.57216964  1
  C  C2520  1  0.69968278  0.67299058  0.55927068  1
  C  C2521  1  0.67092642  0.66083423  0.54744299  1
  H  H2522  1  0.71289322  0.65665303  0.58319463  1
  H  H2523  1  0.66264675  0.63341047  0.56757088  1
  O  O2524  1  0.62390167  0.61594690  0.65365191  1
  C  C2525  1  0.71189816  0.70882949  0.53525030  1
  C  C2526  1  0.62266378  0.61758779  0.68917903  1
  C  C2527  1  0.58701801  0.55000048  0.69392897  1
  H  H2528  1  0.58696746  0.54718129  0.66146583  1
  C  C2529  1  0.71520441  0.53790141  0.59423950  1
  H  H2530  1  0.53949588  0.53785734  0.59102684  1
  C  C2531  1  0.60387879  0.58405445  0.71191266  1
  Cu  Cu2532  1  0.67537275  0.67407384  0.70585837  1
  H  H2533  1  0.64347312  0.56850028  0.55120923  1
  H  H2534  1  0.56382490  0.65105966  0.68347037  1
  O  O2535  1  0.71634559  0.70101281  0.69672246  1
  C  C2536  1  0.54969430  0.64918051  0.71085240  1
  O  O2537  1  0.59048397  0.72107133  0.70672349  1
  C  C2538  1  0.56743399  0.52613449  0.53555771  1
  O  O2539  1  0.63447835  0.65053730  0.70924002  1
  H  H2540  1  0.61895688  0.53179262  0.53629639  1
  O  O2541  1  0.51972997  0.63128181  0.58837703  1
  C  C2542  1  0.60419876  0.63036039  0.53206215  1
  Cu  Cu2543  1  0.55756418  0.69355363  0.52154393  1
  H  H2544  1  0.53305938  0.58226382  0.53928568  1
  C  C2545  1  0.52138668  0.53321349  0.61425507  1
  C  C2546  1  0.52592417  0.61753453  0.71470568  1
  H  H2547  1  0.66135609  0.55868390  0.71404091  1
  O  O2548  1  0.54232309  0.71069420  0.63270547  1
  O  O2549  1  0.51976269  0.66296267  0.52902174  1
  O  O2550  1  0.55793043  0.72267139  0.57092067  1
  O  O2551  1  0.69164702  0.62231151  0.72868747  1
  C  C2552  1  0.53645288  0.72495090  0.59820594  1
  C  C2553  1  0.74475967  0.72166335  0.54252352  1
  C  C2554  1  0.64833374  0.53053392  0.60561768  1
  C  C2555  1  0.70179427  0.51805062  0.62851317  1
  H  H2556  1  0.62224143  0.52294253  0.61077584  1
  H  H2557  1  0.52016388  0.59363059  0.69134899  1
  C  C2558  1  0.50541869  0.65077040  0.56328925  1
  C  C2559  1  0.73556162  0.55562111  0.51197637  1
  C  C2560  1  0.73770241  0.70781298  0.72249174  1
  H  H2561  1  0.73997245  0.54291592  0.58933479  1
  C  C2562  1  0.57174589  0.51927111  0.71856835  1
  H  H2563  1  0.52029466  0.56301747  0.63422418  1
  C  C2564  1  0.65024877  0.68284184  0.52085458  1
  C  C2565  1  0.57622195  0.60889849  0.51623922  1
  C  C2566  1  0.59900179  0.51045410  0.53331300  1
  H  H2567  1  0.71848316  0.50456855  0.64949843  1
  C  C2568  1  0.66883865  0.51201384  0.63246372  1
  H  H2569  1  0.66177035  0.51014028  0.51358404  1
  H  H2570  1  0.51795307  0.50819064  0.52500366  1
  C  C2571  1  0.57621194  0.71594060  0.74004828  1
  C  C2572  1  0.55502585  0.67815137  0.74350723  1
  C  C2573  1  0.61909151  0.66288883  0.50717575  1
  C  C2574  1  0.66212792  0.54506387  0.74658416  1
  C  C2575  1  0.69308192  0.73204376  0.50860906  1
  H  H2576  1  0.51431210  0.74803205  0.52638655  1
  Cu  Cu2577  1  0.56883791  0.74819825  0.66728641  1
  H  H2578  1  0.74814652  0.53499205  0.53517519  1
  H  H2579  1  0.66132526  0.59693688  0.50117077  1
  C  C2580  1  0.66187477  0.72036155  0.50103080  1
  H  H2581  1  0.66745821  0.76410497  0.57527502  1
  C  C2582  1  0.50816194  0.75094704  0.59037952  1
  O  O2583  1  0.60448859  0.78305674  0.65783557  1
  O  O2584  1  0.61404917  0.76624250  0.59198724  1
  H  H2585  1  0.72679473  0.77667027  0.58598007  1
  H  H2586  1  0.64880937  0.80854017  0.70101795  1
  C  C2587  1  0.62218078  0.77782989  0.62808298  1
  C  C2588  1  0.65562140  0.78753534  0.63624435  1
  O  O2589  1  0.53897565  0.79068468  0.67961433  1
  C  C2590  1  0.53825700  0.86741904  0.68887058  1
  C  C2591  1  0.54593086  0.82326717  0.70116489  1
  C  C2592  1  0.53820678  0.90652495  0.54774184  1
  C  C2593  1  0.67704752  0.77609810  0.60495420  1
  C  C2594  1  0.70819082  0.78328528  0.61088898  1
  O  O2595  1  0.55741600  0.83879916  0.57531503  1
  C  C2596  1  0.56326974  0.87800050  0.56433236  1
  C  C2597  1  0.71925187  0.80243991  0.64756945  1
  O  O2598  1  0.58975499  0.89272239  0.56905846  1
  C  C2599  1  0.69799451  0.80691415  0.68136493  1
  C  C2600  1  0.66568828  0.80072421  0.67570133  1
  Cu  Cu2601  1  0.58275670  0.79275872  0.56464144  1
  H  H2602  1  0.70664040  0.81765462  0.71068435  1
  H  H2603  1  0.62779748  0.94581008  0.56527075  1
  C  C2604  1  0.52784653  0.94951665  0.66210170  1
  C  C2605  1  0.63659492  0.94136825  0.53394968  1
  C  C2606  1  0.52449957  0.87340051  0.65065826  1
  H  H2607  1  0.64565833  0.87244007  0.54574229  1
  C  C2608  1  0.54316665  0.94499502  0.69935632  1
  C  C2609  1  0.54700941  0.90273489  0.71399870  1
  C  C2610  1  0.51777774  0.91451338  0.63692432  1
  H  H2611  1  0.51899991  0.84599357  0.63152648  1
  H  H2612  1  0.55232658  0.97221089  0.71690422  1
  C  C2613  1  0.54446395  0.94971639  0.53381853  1
  C  C2614  1  0.64478243  0.89939344  0.52343066  1
  H  H2615  1  0.56740162  0.96421922  0.53861341  1
  O  O2616  1  0.56036376  0.81661267  0.73385570  1
  C  C2617  1  0.50739460  0.88858931  0.54940694  1
  H  H2618  1  0.50213308  0.85604883  0.56139893  1
  C  C2619  1  0.51971221  0.97319043  0.51509839  1
  H  H2620  1  0.50741572  0.91904506  0.60801984  1
  H  H2621  1  0.74559660  0.83250424  0.71436383  1
  C  C2622  1  0.63771035  0.97761510  0.50656540  1
  O  O2623  1  0.59952169  0.78382348  0.51222622  1
  H  H2624  1  0.55456205  0.89718935  0.74483602  1
  H  H2625  1  0.58287777  0.98801923  0.65287511  1
  C  C2626  1  0.53173064  0.99595614  0.64754971  1
  C  C2627  1  0.50811764  0.61489653  0.75212736  1
  C  C2628  1  0.60158146  0.58942031  0.75408482  1
  C  C2629  1  0.69119844  0.61043374  0.76591213  1
  C  C2630  1  0.51544275  0.69236018  0.96994220  1
  O  O2631  1  0.73249906  0.70575298  0.76105860  1
  C  C2632  1  0.57105817  0.52643353  0.76042689  1
  H  H2633  1  0.50558135  0.56581794  0.82901564  1
  H  H2634  1  0.61448808  0.61879990  0.76488388  1
  C  C2635  1  0.51672884  0.64159888  0.78596366  1
  C  C2636  1  0.73011257  0.72920271  0.88392252  1
  C  C2637  1  0.67825188  0.56876926  0.77748596  1
  C  C2638  1  0.58318722  0.56433585  0.77964757  1
  C  C2639  1  0.68043948  0.55470178  0.81785452  1
  O  O2640  1  0.70213735  0.63581879  0.79135174  1
  H  H2641  1  0.69250798  0.57381841  0.84140882  1
  H  H2642  1  0.57694193  0.57175844  0.81097757  1
  C  C2643  1  0.71649042  0.64969966  0.90564392  1
  H  H2644  1  0.69233874  0.65930739  0.91428385  1
  O  O2645  1  0.62887109  0.63979317  0.91946086  1
  C  C2646  1  0.63938259  0.67624529  0.91708786  1
  C  C2647  1  0.70403318  0.57396195  0.93265305  1
  C  C2648  1  0.67208109  0.57169253  0.92064009  1
  C  C2649  1  0.55844302  0.53987625  0.90465792  1
  H  H2650  1  0.53649832  0.61472410  0.89946738  1
  H  H2651  1  0.66142881  0.58919051  0.89385015  1
  C  C2652  1  0.72672498  0.60717469  0.91457082  1
  H  H2653  1  0.62760510  0.55234292  0.94119899  1
  C  C2654  1  0.65271866  0.54923886  0.94711803  1
  C  C2655  1  0.53685970  0.63291566  0.92792587  1
  C  C2656  1  0.55538047  0.61964716  0.96116490  1
  H  H2657  1  0.57103077  0.59121334  0.96218411  1
  O  O2658  1  0.57989624  0.55386253  0.89423207  1
  C  C2659  1  0.53997926  0.67358678  0.78078923  1
  H  H2660  1  0.54592386  0.69432843  0.80731572  1
  C  C2661  1  0.73821064  0.68179457  0.89102064  1
  H  H2662  1  0.58938627  0.71564845  0.93042403  1
  H  H2663  1  0.71272529  0.72167030  0.96338694  1
  C  C2664  1  0.71678000  0.55029550  0.96573301  1
  H  H2665  1  0.74177559  0.54910378  0.97144571  1
  O  O2666  1  0.58005217  0.71555700  0.85223155  1
  C  C2667  1  0.66366969  0.52727236  0.98137931  1
  C  C2668  1  0.64151128  0.70312729  0.95355634  1
  H  H2669  1  0.70514772  0.73314826  0.87824308  1
  H  H2670  1  0.61609309  0.64724317  0.98465495  1
  C  C2671  1  0.66632057  0.51597230  0.83202715  1
  Cu  Cu2672  1  0.74284390  0.65520116  0.79142460  1
  H  H2673  1  0.73969762  0.74084332  0.85544029  1
  C  C2674  1  0.69648621  0.52590426  0.98944589  1
  O  O2675  1  0.65026460  0.69334095  0.88178068  1
  C  C2676  1  0.72889124  0.74899182  0.95932137  1
  Cu  Cu2677  1  0.62149679  0.72787299  0.85035347  1
  C  C2678  1  0.62676480  0.68060813  0.98619043  1
  C  C2679  1  0.64603764  0.50898856  0.76026956  1
  O  O2680  1  0.57995996  0.74102286  0.76957137  1
  C  C2681  1  0.51664837  0.66906197  0.93135510  1
  H  H2682  1  0.50102681  0.55660808  0.89682160  1
  H  H2683  1  0.50237409  0.72265854  0.97283987  1
  H  H2684  1  0.50594359  0.63871177  0.81564236  1
  C  C2685  1  0.55420883  0.64245322  0.99868860  1
  H  H2686  1  0.67041752  0.50408802  0.86356052  1
  H  H2687  1  0.50681223  0.74058081  0.78075269  1
  H  H2688  1  0.50536634  0.74274421  0.89304949  1
  C  C2689  1  0.65524438  0.74602388  0.95097492  1
  H  H2690  1  0.57858213  0.74596353  0.99989101  1
  C  C2691  1  0.57211824  0.74281706  0.93430399  1
  C  C2692  1  0.56014224  0.74580191  0.86027004  1
  H  H2693  1  0.60517721  0.84318746  0.88282817  1
  H  H2694  1  0.62160024  0.92855501  0.75501242  1
  H  H2695  1  0.65495394  0.85450802  0.76550050  1
  H  H2696  1  0.51592367  0.89808174  0.89658548  1
  C  C2697  1  0.50550444  0.92021202  0.91934374  1
  H  H2698  1  0.54591309  0.96312175  0.91615063  1
  H  H2699  1  0.66730334  0.79988298  0.99182677  1
  C  C2700  1  0.52348491  0.95658924  0.93041986  1
  C  C2701  1  0.65480166  0.76862947  0.98651670  1
  C  C2702  1  0.53978131  0.94493573  0.80243517  1
  C  C2703  1  0.63058800  0.84423796  0.82385133  1
  C  C2704  1  0.65078497  0.80550198  0.83287449  1
  H  H2705  1  0.53089256  0.91283313  0.80718470  1
  C  C2706  1  0.50949695  0.98295018  0.95963762  1
  H  H2707  1  0.50983451  0.83580265  0.94470453  1
  C  C2708  1  0.53549746  0.79742440  0.90431111  1
  H  H2709  1  0.52409318  0.81361642  0.87926571  1
  C  C2710  1  0.52098110  0.98269673  0.79546290  1
  C  C2711  1  0.57275222  0.95494046  0.79689891  1
  C  C2712  1  0.59611592  0.91873108  0.80898496  1
  H  H2713  1  0.57382623  0.90641216  0.86835621  1
  C  C2714  1  0.59169217  0.89540084  0.84557064  1
  C  C2715  1  0.56500420  0.75772087  0.97331294  1
  C  C2716  1  0.73994404  0.76079047  0.92131607  1
  C  C2717  1  0.58516917  0.99464227  0.78293356  1
  C  C2718  1  0.60796316  0.85774134  0.85212786  1
  Cu  Cu2719  1  0.55061137  0.78585355  0.78303976  1
  O  O2720  1  0.54120462  0.75855010  0.83257532  1
  O  O2721  1  0.64245586  0.77721209  0.86121549  1
  C  C2722  1  0.54050424  0.78940486  0.97748546  1
  C  C2723  1  0.61965752  0.90581685  0.78075840  1
  C  C2724  1  0.52848920  0.80992574  0.94270288  1
  C  C2725  1  0.55765940  0.76197586  0.89947106  1
  H  H2726  1  0.66927004  0.75689992  0.92361692  1
  O  O2727  1  0.67374232  0.79819836  0.81294430  1
  O  O2728  1  0.51850559  0.82561534  0.79404064  1
  C  C2729  1  0.74314418  0.77100134  0.99390571  1
  C  C2730  1  0.63663816  0.86728893  0.78815920  1
  C  C2731  1  0.81011524  0.11277243  0.13146032  1
  H  H2732  1  0.82654900  0.09661282  0.10962487  1
  C  C2733  1  0.77956979  0.12841532  0.11991510  1
  H  H2734  1  0.86178711  0.05091872  0.13446544  1
  C  C2735  1  0.86820580  0.06242199  0.16452859  1
  C  C2736  1  0.86760877  0.17924667  0.04906193  1
  H  H2737  1  0.91902302  0.04849151  0.16150303  1
  C  C2738  1  0.89344454  0.20631303  0.04669819  1
  C  C2739  1  0.89929328  0.06153108  0.17876983  1
  C  C2740  1  0.81691132  0.10878718  0.17371298  1
  C  C2741  1  0.76607476  0.14499341  0.18791199  1
  H  H2742  1  0.79639244  0.07171932  0.05332077  1
  C  C2743  1  0.78180175  0.10084377  0.04462323  1
  C  C2744  1  0.84491030  0.08321606  0.19021242  1
  H  H2745  1  0.83773279  0.17632606  0.18129793  1
  H  H2746  1  0.81633392  0.17979447  0.06405627  1
  C  C2747  1  0.83857759  0.19919134  0.06180391  1
  C  C2748  1  0.79532923  0.12899631  0.20161583  1
  C  C2749  1  0.77106980  0.13061038  0.07516358  1
  C  C2750  1  0.75550138  0.14092344  0.14798738  1
  C  C2751  1  0.84241150  0.19691464  0.20791520  1
  H  H2752  1  0.83502170  0.21178150  0.13715806  1
  C  C2753  1  0.90683414  0.07730589  0.21650336  1
  O  O2754  1  0.96131824  0.06285584  0.21225113  1
  H  H2755  1  0.80205143  0.12980939  0.23433011  1
  C  C2756  1  0.85240402  0.09140424  0.23206154  1
  C  C2757  1  0.92642875  0.17835593  0.03842616  1
  O  O2758  1  0.95137532  0.19710911  0.04147436  1
  H  H2759  1  0.99380089  0.12388416  0.03134163  1
  H  H2760  1  0.88244253  0.15884365  0.23192863  1
  C  C2761  1  0.86574637  0.18677201  0.23720391  1
  H  H2762  1  0.87132019  0.14350245  0.04167371  1
  O  O2763  1  0.92248249  0.14139228  0.02706688  1
  C  C2764  1  0.75504152  0.16930600  0.06649571  1
  C  C2765  1  0.77463225  0.10967293  0.00465209  1
  H  H2766  1  0.99586504  0.15019934  0.10400755  1
  C  C2767  1  0.82361777  0.23480677  0.21441721  1
  C  C2768  1  0.94060347  0.07952780  0.23225164  1
  H  H2769  1  0.75956845  0.19589226  0.23637262  1
  C  C2770  1  0.81937471  0.23857420  0.13811583  1
  C  C2771  1  0.83896295  0.24379553  0.07307889  1
  C  C2772  1  0.88316009  0.09140070  0.24482933  1
  C  C2773  1  0.89328733  0.25140884  0.05165559  1
  C  C2774  1  0.80825657  0.25118345  0.17680181  1
  C  C2775  1  0.81319983  0.26192030  0.10163115  1
  H  H2776  1  0.96146538  0.27135445  0.20196863  1
  H  H2777  1  0.91541719  0.27075564  0.04470917  1
  C  C2778  1  0.86431877  0.27120631  0.05903967  1
  H  H2779  1  0.86192393  0.30726587  0.06023788  1
  C  C2780  1  0.79017958  0.28925291  0.17590365  1
  C  C2781  1  0.79426537  0.29992517  0.09999686  1
  C  C2782  1  0.78413765  0.31430781  0.13976339  1
  H  H2783  1  0.82603934  0.34753503  0.19016919  1
  C  C2784  1  0.76866536  0.35567721  0.14781055  1
  C  C2785  1  0.78146364  0.38166270  0.17989381  1
  H  H2786  1  0.79127937  0.31978094  0.07118613  1
  C  C2787  1  0.84893679  0.40504122  0.03021692  1
  Cu  Cu2788  1  0.77710087  0.39639910  0.02252896  1
  O  O2789  1  0.85973247  0.42973679  0.05726679  1
  H  H2790  1  0.78027546  0.30016250  0.20435111  1
  C  C2791  1  0.81187225  0.37456795  0.20060381  1
  H  H2792  1  0.91301520  0.39679682  0.05109430  1
  C  C2793  1  0.98038784  0.46310606  0.13471610  1
  C  C2794  1  0.97486214  0.41442679  0.20412757  1
  C  C2795  1  0.90442866  0.37216763  0.02936870  1
  C  C2796  1  0.98365321  0.28986683  0.20846507  1
  H  H2797  1  0.87674206  0.35861063  0.21567073  1
  O  O2798  1  0.82227856  0.41101380  0.01512914  1
  C  C2799  1  0.98505402  0.44935076  0.09403729  1
  H  H2800  1  0.98237307  0.33970884  0.16208539  1
  C  C2801  1  0.87261986  0.37417110  0.01421923  1
  H  H2802  1  0.97966909  0.39053608  0.22720849  1
  H  H2803  1  0.82298416  0.28760542  0.01176413  1
  H  H2804  1  0.98680022  0.47200041  0.03255688  1
  H  H2805  1  0.87122253  0.49427295  0.18039434  1
  C  C2806  1  0.76853143  0.44326430  0.22321746  1
  C  C2807  1  0.81650783  0.39930798  0.23412404  1
  C  C2808  1  0.98110285  0.48038341  0.06337640  1
  Cu  Cu2809  1  0.87097373  0.48941011  0.05006558  1
  C  C2810  1  0.99121617  0.43204486  0.17167743  1
  H  H2811  1  0.94941803  0.34010502  0.02149699  1
  C  C2812  1  0.76152081  0.41885929  0.18844621  1
  C  C2813  1  0.99594267  0.32526931  0.18688874  1
  H  H2814  1  0.99602588  0.41773920  0.08749910  1
  O  O2815  1  0.77932998  0.33736497  0.00447879  1
  C  C2816  1  0.92451453  0.34129792  0.01103276  1
  C  C2817  1  0.99912096  0.27356082  0.24216755  1
  H  H2818  1  0.81641892  0.29757804  0.24626556  1
  C  C2819  1  0.87233785  0.36475971  0.24874350  1
  C  C2820  1  0.79520243  0.43382028  0.24773978  1
  C  C2821  1  0.82872476  0.26603647  0.24633880  1
  Cu  Cu2822  1  0.99257389  0.16311399  0.31386333  1
  O  O2823  1  0.75025209  0.00187061  0.35227130  1
  C  C2824  1  0.99725900  0.12530406  0.47766237  1
  H  H2825  1  0.83392968  0.10625814  0.25287085  1
  O  O2826  1  0.96171223  0.22082310  0.25755064  1
  H  H2827  1  0.98979677  0.11423593  0.41379432  1
  O  O2828  1  0.94577215  0.10301669  0.26435967  1
  H  H2829  1  0.88593968  0.10488259  0.27614016  1
  O  O2830  1  0.79145827  0.23569549  0.40370672  1
  O  O2831  1  0.77798523  0.12210091  0.30642440  1
  H  H2832  1  0.81199526  0.15852705  0.35660598  1
  C  C2833  1  0.80001877  0.09346567  0.30633926  1
  C  C2834  1  0.82537565  0.09379899  0.33533482  1
  H  H2835  1  0.85392009  0.16302872  0.40777416  1
  C  C2836  1  0.87408386  0.09848207  0.39348600  1
  C  C2837  1  0.87182169  0.06097751  0.36757929  1
  C  C2838  1  0.85277177  0.13451023  0.38851231  1
  C  C2839  1  0.82889119  0.13130596  0.36025440  1
  H  H2840  1  0.89777768  0.16979404  0.42660461  1
  C  C2841  1  0.91330545  0.06524968  0.44621361  1
  C  C2842  1  0.89715866  0.09985227  0.42888886  1
  C  C2843  1  0.90208788  0.14198123  0.44513896  1
  H  H2844  1  0.76398650  0.09528897  0.41946390  1
  O  O2845  1  0.79839626  0.06131095  0.28276191  1
  C  C2846  1  0.84792366  0.06168434  0.33739461  1
  C  C2847  1  0.76321383  0.12121902  0.44173316  1
  O  O2848  1  0.91293465  0.17438799  0.29052559  1
  H  H2849  1  0.91262221  0.03387147  0.43038001  1
  C  C2850  1  0.97255655  0.19259497  0.39259773  1
  Cu  Cu2851  1  0.95189684  0.16285874  0.25899685  1
  C  C2852  1  0.89726808  0.20954115  0.29539088  1
  H  H2853  1  0.88948168  0.03353823  0.36638424  1
  H  H2854  1  0.84540440  0.03462933  0.31780452  1
  C  C2855  1  0.97786673  0.21232078  0.46554322  1
  O  O2856  1  0.97264948  0.16474531  0.36350460  1
  C  C2857  1  0.87142321  0.21927348  0.26720763  1
  H  H2858  1  0.81437329  0.12742698  0.44668663  1
  C  C2859  1  0.79058940  0.13820945  0.45795085  1
  C  C2860  1  0.97914902  0.18066045  0.43393259  1
  C  C2861  1  0.81966611  0.02347930  0.47109737  1
  Cu  Cu2862  1  0.77076139  0.01600681  0.27577667  1
  O  O2863  1  0.90149742  0.23223496  0.32654497  1
  C  C2864  1  0.78851193  0.01679223  0.48573479  1
  C  C2865  1  0.82543028  0.02341559  0.42862232  1
  C  C2866  1  0.98762614  0.13718994  0.43981264  1
  C  C2867  1  0.76251389  0.01048871  0.46103216  1
  C  C2868  1  0.92961559  0.07045008  0.48351221  1
  O  O2869  1  0.77140687  0.23551576  0.34282218  1
  C  C2870  1  0.91450266  0.14566239  0.48460984  1
  C  C2871  1  0.76904309  0.00861022  0.41936124  1
  H  H2872  1  0.93124696  0.21231051  0.49560521  1
  C  C2873  1  0.98924061  0.23546744  0.26639941  1
  O  O2874  1  0.96756710  0.23179685  0.38489065  1
  H  H2875  1  0.84810691  0.03428201  0.41626734  1
  C  C2876  1  0.79998581  0.01594330  0.40298772  1
  H  H2877  1  0.80262901  0.02211106  0.37054874  1
  C  C2878  1  0.84845531  0.02978857  0.49741058  1
  C  C2879  1  0.85136959  0.18149172  0.49464505  1
  H  H2880  1  0.85705533  0.14542453  0.49182925  1
  C  C2881  1  0.81941971  0.19722562  0.49668707  1
  C  C2882  1  0.78932840  0.17347411  0.48559370  1
  C  C2883  1  0.75808624  0.18749800  0.49992070  1
  H  H2884  1  0.97089045  0.24638647  0.45933114  1
  C  C2885  1  0.93823394  0.41027024  0.49296893  1
  H  H2886  1  0.82230230  0.40898932  0.31639878  1
  O  O2887  1  0.90820176  0.33887575  0.38264760  1
  C  C2888  1  0.85335006  0.25696847  0.27363932  1
  Cu  Cu2889  1  0.94078625  0.25154969  0.34618111  1
  O  O2890  1  0.94918086  0.40495245  0.45654848  1
  Cu  Cu2891  1  0.89953612  0.48003760  0.49214121  1
  C  C2892  1  0.89782469  0.34950092  0.27134843  1
  C  C2893  1  0.76756081  0.45319693  0.36130329  1
  H  H2894  1  0.77287647  0.39468646  0.31527552  1
  C  C2895  1  0.78562737  0.25451823  0.37297357  1
  C  C2896  1  0.79095943  0.30329481  0.37056429  1
  O  O2897  1  0.88783210  0.48225115  0.43877069  1
  H  H2898  1  0.91785561  0.41197730  0.34554861  1
  C  C2899  1  0.85783831  0.39148649  0.49035562  1
  H  H2900  1  0.80206739  0.45181711  0.27348442  1
  C  C2901  1  0.91671352  0.47171871  0.37737902  1
  Cu  Cu2902  1  0.92999894  0.37547044  0.41895647  1
  C  C2903  1  0.86672065  0.37525546  0.32875831  1
  H  H2904  1  0.96163996  0.32865375  0.47782220  1
  H  H2905  1  0.86581082  0.37950292  0.36211863  1
  C  C2906  1  0.78300877  0.37283740  0.33846867  1
  C  C2907  1  0.76261849  0.49893121  0.36707396  1
  C  C2908  1  0.79930986  0.44044481  0.36679751  1
  H  H2909  1  0.81485590  0.30266369  0.42779919  1
  H  H2910  1  0.85904223  0.28049848  0.29730164  1
  C  C2911  1  0.91416147  0.33352054  0.34526910  1
  C  C2912  1  0.79930550  0.39067729  0.37068310  1
  C  C2913  1  0.78086425  0.32696132  0.33718580  1
  C  C2914  1  0.94611104  0.45808547  0.31385402  1
  H  H2915  1  0.76734942  0.30824947  0.31370495  1
  C  C2916  1  0.89928158  0.45618216  0.41312929  1
  C  C2917  1  0.92757738  0.44457496  0.34661156  1
  H  H2918  1  0.84962296  0.45474600  0.37942363  1
  H  H2919  1  0.82790288  0.38245437  0.42829117  1
  O  O2920  1  0.89493184  0.41647864  0.41426539  1
  C  C2921  1  0.81371000  0.36794883  0.40303676  1
  C  C2922  1  0.89323083  0.35286863  0.31426819  1
  H  H2923  1  0.95156896  0.43592267  0.28886789  1
  C  C2924  1  0.82601675  0.46793613  0.36993511  1
  H  H2925  1  0.86831141  0.41598593  0.46957829  1
  C  C2926  1  0.80745015  0.32359722  0.40180795  1
  C  C2927  1  0.84306192  0.39333807  0.30358992  1
  O  O2928  1  0.93726767  0.31209416  0.33289425  1
  H  H2929  1  0.86598167  0.33575754  0.45306105  1
  C  C2930  1  0.85569597  0.34783284  0.48208114  1
  H  H2931  1  0.91515146  0.32872736  0.25668808  1
  O  O2932  1  0.75392560  0.27269731  0.25273473  1
  C  C2933  1  0.84394443  0.38515884  0.26199360  1
  H  H2934  1  0.89618187  0.16107269  0.66111711  1
  C  C2935  1  0.88999282  0.07133772  0.67839148  1
  C  C2936  1  0.93491506  0.19887233  0.63252393  1
  C  C2937  1  0.92158487  0.07483509  0.68953865  1
  C  C2938  1  0.88090297  0.04040049  0.64802088  1
  H  H2939  1  0.94038810  0.05628640  0.67477084  1
  C  C2940  1  0.96367411  0.17434699  0.65271992  1
  H  H2941  1  0.95500886  0.15463691  0.67895664  1
  C  C2942  1  0.98042257  0.15701351  0.58256910  1
  C  C2943  1  0.86542891  0.09614405  0.69785351  1
  H  H2944  1  0.96404065  0.18153643  0.57163848  1
  O  O2945  1  0.85048333  0.03521853  0.64212928  1
  H  H2946  1  0.84127448  0.08836856  0.69173013  1
  C  C2947  1  0.90325232  0.18889562  0.64246031  1
  C  C2948  1  0.82798722  0.18889743  0.59477097  1
  C  C2949  1  0.79621400  0.17683056  0.59396855  1
  C  C2950  1  0.78082466  0.17777481  0.63177545  1
  C  C2951  1  0.84178888  0.20331027  0.63174514  1
  H  H2952  1  0.78390978  0.16472620  0.56732537  1
  H  H2953  1  0.84184313  0.18553219  0.56616153  1
  C  C2954  1  0.87739041  0.21196890  0.62397209  1
  C  C2955  1  0.87424976  0.12816834  0.72450389  1
  C  C2956  1  0.90685556  0.13485394  0.73140173  1
  C  C2957  1  0.96442408  0.04484834  0.53994926  1
  C  C2958  1  0.98331682  0.14562314  0.62328406  1
  C  C2959  1  0.93081038  0.10860774  0.71510713  1
  H  H2960  1  0.97984670  0.19798517  0.66599240  1
  H  H2961  1  0.96938618  0.08056968  0.54363370  1
  H  H2962  1  0.93032373  0.20619873  0.70176223  1
  C  C2963  1  0.92901722  0.20745068  0.73550373  1
  H  H2964  1  0.95545251  0.11258674  0.72207197  1
  H  H2965  1  0.88945558  0.04110739  0.54432010  1
  H  H2966  1  0.85499129  0.14611584  0.73916583  1
  H  H2967  1  0.93257089  0.11144758  0.53715027  1
  C  C2968  1  0.97806575  0.01351132  0.56368436  1
  O  O2969  1  0.81385550  0.01993844  0.72050058  1
  C  C2970  1  0.94211713  0.23586874  0.60777634  1
  H  H2971  1  0.75374535  0.20955616  0.52478452  1
  H  H2972  1  0.96701032  0.24047167  0.59828483  1
  C  C2973  1  0.79345315  0.19217194  0.66880242  1
  H  H2974  1  0.89802581  0.01212388  0.72553958  1
  C  C2975  1  0.87038524  0.03419652  0.52097627  1
  H  H2976  1  0.98922685  0.21725913  0.74812047  1
  C  C2977  1  0.83284947  0.00916733  0.74815160  1
  H  H2978  1  0.91758004  0.18861839  0.53963835  1
  H  H2979  1  0.78546177  0.02201130  0.51939522  1
  O  O2980  1  0.90167705  0.01560042  0.63471574  1
  C  C2981  1  0.91764539  0.00253266  0.74610068  1
  C  C2982  1  0.82489119  0.20303232  0.66826689  1
  H  H2983  1  0.77891169  0.19509057  0.69545768  1
  C  C2984  1  0.88427444  0.24815023  0.59930179  1
  C  C2985  1  0.98802104  0.19693839  0.50264599  1
  H  H2986  1  0.98832704  0.21773624  0.52882379  1
  H  H2987  1  0.83685099  0.21217187  0.69567866  1
  C  C2988  1  0.94586392  0.03328104  0.50492440  1
  C  C2989  1  0.92644969  0.10911978  0.50567309  1
  C  C2990  1  0.87757809  0.20827025  0.50114169  1
  C  C2991  1  0.91208142  0.18947044  0.50702537  1
  H  H2992  1  0.99426970  0.02135174  0.58841299  1
  C  C2993  1  0.99579349  0.15411726  0.51081775  1
  C  C2994  1  0.81459467  0.24321756  0.50008501  1
  C  C2995  1  0.91637097  0.25988271  0.59195496  1
  H  H2996  1  0.86485446  0.26425401  0.58389376  1
  C  C2997  1  0.87137592  0.25346532  0.50269435  1
  H  H2998  1  0.94622200  0.26178682  0.52070212  1
  O  O2999  1  0.89042142  0.48677824  0.69591661  1
  H  H3000  1  0.92312274  0.26474591  0.67408056  1
  C  C3001  1  0.94651766  0.28556635  0.72967746  1
  C  C3002  1  0.94047717  0.28835748  0.68713202  1
  C  C3003  1  0.91861006  0.29989238  0.56442645  1
  H  H3004  1  0.89463032  0.34369825  0.60388432  1
  C  C3005  1  0.90680332  0.34073170  0.57571496  1
  C  C3006  1  0.91430106  0.37834012  0.55357936  1
  C  C3007  1  0.83903644  0.37995548  0.55880966  1
  H  H3008  1  0.83412605  0.39715014  0.58847572  1
  H  H3009  1  0.95338228  0.32126040  0.62995589  1
  C  C3010  1  0.95564309  0.31926632  0.66305440  1
  H  H3011  1  0.90220021  0.40945472  0.56005101  1
  O  O3012  1  0.79061014  0.40905984  0.62546940  1
  H  H3013  1  0.82447533  0.31412629  0.57321744  1
  C  C3014  1  0.83319313  0.33673867  0.55073779  1
  O  O3015  1  0.84364750  0.46724593  0.57342840  1
  C  C3016  1  0.80846469  0.40857367  0.65676844  1
  O  O3017  1  0.83854372  0.40899196  0.65361207  1
  C  C3018  1  0.79351185  0.41059252  0.69588497  1
  C  C3019  1  0.93648285  0.29501237  0.52758177  1
  Cu  Cu3020  1  0.78769844  0.45218566  0.58378173  1
  Cu  Cu3021  1  0.86461181  0.44743945  0.67483760  1
  C  C3022  1  0.84967520  0.40819644  0.52784683  1
  C  C3023  1  0.85044175  0.45496398  0.53753630  1
  H  H3024  1  0.83970773  0.40632767  0.72673640  1
  C  C3025  1  0.97854531  0.34603499  0.68273399  1
  C  C3026  1  0.98427310  0.34339562  0.72434738  1
  H  H3027  1  0.92090305  0.36540369  0.71407142  1
  C  C3028  1  0.81387293  0.41006416  0.73130729  1
  H  H3029  1  0.94230268  0.48655485  0.72541302  1
  C  C3030  1  0.76078118  0.41386580  0.70085941  1
  C  C3031  1  0.84161670  0.32107699  0.51165451  1
  C  C3032  1  0.94528255  0.33108666  0.50401476  1
  C  C3033  1  0.93137327  0.37111809  0.51734073  1
  O  O3034  1  0.75887407  0.43463255  0.54484250  1
  H  H3035  1  0.83273464  0.27699044  0.73796799  1
  C  C3036  1  0.84847140  0.30462577  0.74254551  1
  O  O3037  1  0.93014674  0.44565001  0.50787454  1
  C  C3038  1  0.84079018  0.27200699  0.50379435  1
  H  H3039  1  0.89085395  0.27736384  0.50300789  1
  O  O3040  1  0.85833727  0.48416322  0.51400687  1
  C  C3041  1  0.96843263  0.31331653  0.74865299  1
  C  C3042  1  0.86673008  0.33434087  0.74607741  1
  C  C3043  1  0.91446348  0.38361183  0.74103587  1
  H  H3044  1  0.95776391  0.42259080  0.74031588  1
  O  O3045  1  0.99881617  0.37887160  0.62175641  1
  C  C3046  1  0.99970473  0.37378749  0.65995030  1
  H  H3047  1  0.75045897  0.32520537  0.73338187  1
  H  H3048  1  0.78996023  0.25602878  0.50000853  1
  C  C3049  1  0.91496754  0.17486348  0.75841087  1
  C  C3050  1  0.93234832  0.24888802  0.75419305  1
  H  H3051  1  0.81413275  0.09235308  0.75491110  1
  C  C3052  1  0.95707142  0.01702421  0.79679852  1
  C  C3053  1  0.99548389  0.03494546  0.85449175  1
  C  C3054  1  0.92719705  0.02821777  0.77680858  1
  H  H3055  1  0.91300938  0.05941880  0.78137936  1
  C  C3056  1  0.98598012  0.12310293  0.84073071  1
  C  C3057  1  0.97412330  0.04820188  0.82361722  1
  H  H3058  1  0.98534983  0.21125001  0.88940497  1
  C  C3059  1  0.86677499  0.02374250  0.80754497  1
  C  C3060  1  0.83191111  0.08204287  0.77721889  1
  C  C3061  1  0.84437599  0.04027949  0.77837654  1
  H  H3062  1  0.95343617  0.10411412  0.79066459  1
  C  C3063  1  0.96789670  0.09330259  0.81717470  1
  H  H3064  1  0.95986310  0.17316838  0.80932984  1
  H  H3065  1  0.89694445  0.04004972  0.85923659  1
  C  C3066  1  0.84025485  0.10641723  0.81048155  1
  H  H3067  1  0.82697502  0.13593081  0.81436230  1
  C  C3068  1  0.90581543  0.17956052  0.79959631  1
  H  H3069  1  0.89496118  0.15293329  0.81831422  1
  H  H3070  1  0.82218339  0.14895244  0.87872094  1
  C  C3071  1  0.84595513  0.14860975  0.89095014  1
  C  C3072  1  0.86312718  0.09328451  0.84046593  1
  C  C3073  1  0.86983272  0.11941397  0.87816072  1
  C  C3074  1  0.85397563  0.17699436  0.92358577  1
  C  C3075  1  0.90931830  0.15149236  0.92236671  1
  C  C3076  1  0.90246942  0.12164645  0.89202049  1
  C  C3077  1  0.83198796  0.21380532  0.93568265  1
  C  C3078  1  0.88517341  0.17751697  0.94007899  1
  H  H3079  1  0.91966674  0.09814679  0.88010293  1
  C  C3080  1  0.94392277  0.16123128  0.93799087  1
  H  H3081  1  0.89423249  0.19410640  0.87688644  1
  C  C3082  1  0.87696507  0.05027727  0.83899370  1
  H  H3083  1  0.94434327  0.15057528  0.97092730  1
  H  H3084  1  0.96102444  0.14138694  0.92118327  1
  H  H3085  1  0.88895696  0.20049064  0.96370196  1
  C  C3086  1  0.95085718  0.21120100  0.93650344  1
  C  C3087  1  0.91152098  0.22014936  0.81817566  1
  H  H3088  1  0.80029462  0.21342838  0.88384338  1
  C  C3089  1  0.98447034  0.16698876  0.81883146  1
  H  H3090  1  0.78706576  0.09230752  0.98281141  1
  H  H3091  1  0.84009905  0.21834498  0.82348585  1
  C  C3092  1  0.80487909  0.22865371  0.91319870  1
  H  H3093  1  0.78328181  0.20519702  0.82581751  1
  C  C3094  1  0.89943161  0.22632427  0.86253860  1
  C  C3095  1  0.83878986  0.24056506  0.96984070  1
  H  H3096  1  0.91895424  0.22235159  0.98605402  1
  H  H3097  1  0.85573536  0.22890397  0.99211022  1
  O  O3098  1  0.75675775  0.12146424  0.93021451  1
  C  C3099  1  0.96808890  0.23219423  0.90457435  1
  H  H3100  1  0.91778587  0.24365571  0.88180341  1
  H  H3101  1  0.99112084  0.19227835  0.83967187  1
  C  C3102  1  0.77589692  0.23279310  0.80653525  1
  C  C3103  1  0.75786043  0.14781148  0.99527124  1
  C  C3104  1  0.93545924  0.23805021  0.96462414  1
  C  C3105  1  0.84426164  0.24949093  0.83490339  1
  C  C3106  1  0.75076075  0.15140910  0.95101685  1
  C  C3107  1  0.75474085  0.30072310  0.75683793  1
  C  C3108  1  0.91140040  0.31220479  0.98208197  1
  C  C3109  1  0.85972320  0.34571675  0.98557471  1
  C  C3110  1  0.94897800  0.30246685  0.92332319  1
  H  H3111  1  0.86774315  0.29209423  0.94599206  1
  H  H3112  1  0.98104173  0.42990477  0.94843884  1
  C  C3113  1  0.75033785  0.44479557  0.96298411  1
  C  C3114  1  0.99959662  0.40865414  0.93786697  1
  O  O3115  1  0.87443141  0.49138246  0.99524216  1
  H  H3116  1  0.80079064  0.49086509  0.89191623  1
  H  H3117  1  0.78913547  0.33912150  0.79107599  1
  H  H3118  1  0.91104547  0.36991912  0.87193020  1
  C  C3119  1  0.96692386  0.27683516  0.89575885  1
  C  C3120  1  0.93463789  0.41457176  0.75549906  1
  C  C3121  1  0.87876246  0.31411676  0.96905979  1
  H  H3122  1  0.97552201  0.31116529  0.78137085  1
  H  H3123  1  0.88884829  0.44013283  0.83921897  1
  C  C3124  1  0.85418835  0.33443589  0.86916297  1
  C  C3125  1  0.79067471  0.48344478  0.92180131  1
  C  C3126  1  0.76755186  0.41017837  0.77386822  1
  C  C3127  1  0.88639164  0.37026236  0.76043656  1
  H  H3128  1  0.90304477  0.30910343  0.87438933  1
  C  C3129  1  0.77132172  0.42627875  0.85380758  1
  C  C3130  1  0.81840863  0.27202418  0.98226175  1
  O  O3131  1  0.92476251  0.48158343  0.97568444  1
  C  C3132  1  0.82348326  0.32457859  0.85295585  1
  C  C3133  1  0.92438461  0.43334901  0.79174193  1
  H  H3134  1  0.96742356  0.36153015  0.87094334  1
  C  C3135  1  0.87537147  0.39262311  0.79572569  1
  C  C3136  1  0.92476698  0.25464015  0.79529375  1
  O  O3137  1  0.98490644  0.48374944  0.90041491  1
  C  C3138  1  0.79086088  0.28237087  0.95859968  1
  C  C3139  1  0.79126572  0.27422692  0.80944395  1
  H  H3140  1  0.81522061  0.39407465  0.90842652  1
  H  H3141  1  0.83357156  0.34539186  0.97985506  1
  C  C3142  1  0.88511707  0.43934101  0.94582078  1
  H  H3143  1  0.99446681  0.36400662  0.98712184  1
  C  C3144  1  0.89468750  0.42414678  0.81035644  1
  O  O3145  1  0.97320104  0.47079275  0.79515851  1
  H  H3146  1  0.83629943  0.44799163  0.95960481  1
  C  C3147  1  0.77093027  0.31651097  0.97336389  1
  H  H3148  1  0.94740596  0.33754874  0.91927787  1
  C  C3149  1  0.98364634  0.34148105  0.85242736  1
  H  H3150  1  0.93333414  0.42266324  0.92203928  1
  C  C3151  1  0.94538453  0.46517951  0.81086192  1
  C  C3152  1  0.90795346  0.42014136  0.91869404  1
  C  C3153  1  0.80114802  0.41146201  0.76962534  1
  C  C3154  1  0.86349180  0.37615744  0.89175841  1
  H  H3155  1  0.81859735  0.41326050  0.79600203  1
  C  C3156  1  0.76773886  0.45064722  0.92590630  1
  C  C3157  1  0.77743756  0.30835547  0.78660795  1
  H  H3158  1  0.79442729  0.44250071  0.85152392  1
  C  C3159  1  0.75785497  0.40857078  0.81817760  1
  H  H3160  1  0.76284928  0.26783400  0.90079981  1
  C  C3161  1  0.98418045  0.29513886  0.85814110  1
  C  C3162  1  0.78396513  0.26111561  0.92189046  1
  H  H3163  1  0.85222667  0.38645509  0.80961674  1
  C  C3164  1  0.87250107  0.25900455  0.85694317  1
  H  H3165  1  0.93011176  0.28501655  0.80998674  1
  C  C3166  1  0.82059440  0.28297908  0.83543792  1
  H  H3167  1  0.80279158  0.34594526  0.85279484  1
  C  C3168  1  0.89669401  0.38772293  0.89296802  1
  O  O3169  1  0.93619633  0.48238334  0.84277281  1
  C  C3170  1  0.85346381  0.43006079  0.93935446  1
  C  C3171  1  0.75533346  0.42194948  0.89174602  1
  C  C3172  1  0.87792807  0.30226112  0.86814534  1
  C  C3173  1  0.89563154  0.47158586  0.97513960  1
  C  C3174  1  0.84052174  0.40295789  0.90997482  1
  C  C3175  1  0.93355101  0.28376244  0.95805700  1
  C  C3176  1  0.75810589  0.47049829  0.99405678  1
  C  C3177  1  0.97703929  0.60775609  0.20253151  1
  C  C3178  1  0.96727217  0.65927575  0.14616906  1
  C  C3179  1  0.95642772  0.68714345  0.17654183  1
  C  C3180  1  0.96651508  0.55464211  0.03734442  1
  C  C3181  1  0.95526885  0.67722028  0.21864425  1
  H  H3182  1  0.95383573  0.56613900  0.11495879  1
  O  O3183  1  0.95602015  0.58965578  0.04238652  1
  C  C3184  1  0.96322494  0.53364617  0.11109353  1
  C  C3185  1  0.98821905  0.56815361  0.22472554  1
  C  C3186  1  0.97778206  0.61948950  0.16087399  1
  H  H3187  1  0.96874277  0.67155402  0.11457343  1
  C  C3188  1  0.89983691  0.60684022  0.21230888  1
  C  C3189  1  0.89713785  0.59888537  0.17145213  1
  C  C3190  1  0.88528224  0.55613604  0.16214625  1
  H  H3191  1  0.90303906  0.62360663  0.14841828  1
  C  C3192  1  0.88000730  0.54229986  0.11980483  1
  O  O3193  1  0.88509476  0.56897300  0.09434973  1
  C  C3194  1  0.79242474  0.52771926  0.02616029  1
  C  C3195  1  0.97012745  0.52176335  0.07121003  1
  H  H3196  1  0.98666013  0.59721596  0.13813608  1
  H  H3197  1  0.90858266  0.63936911  0.22026935  1
  C  C3198  1  0.88234845  0.53561626  0.23316401  1
  O  O3199  1  0.77261219  0.51807533  0.06193612  1
  H  H3200  1  0.78142578  0.53997547  0.07925607  1
  C  C3201  1  0.96646636  0.63784243  0.23196176  1
  O  O3202  1  0.81156625  0.55577704  0.02988319  1
  C  C3203  1  0.87801754  0.52565171  0.19174221  1
  C  C3204  1  0.94337945  0.72984959  0.16105001  1
  H  H3205  1  0.94493517  0.70066270  0.23824836  1
  C  C3206  1  0.88977460  0.57884845  0.24425564  1
  H  H3207  1  0.76756804  0.53341001  0.19705716  1
  O  O3208  1  0.87125519  0.50342317  0.10725867  1
  O  O3209  1  0.94042634  0.73689049  0.12132455  1
  H  H3210  1  0.96399524  0.51147834  0.17561589  1
  C  C3211  1  0.96820691  0.50345279  0.14303308  1
  O  O3212  1  0.97084932  0.53898823  0.00075848  1
  O  O3213  1  0.93646512  0.75647875  0.18410976  1
  O  O3214  1  0.91608249  0.78805724  0.05287349  1
  Cu  Cu3215  1  0.92619739  0.79114344  0.11272725  1
  H  H3216  1  0.88571199  0.83852054  0.18060548  1
  C  C3217  1  0.90265089  0.86294544  0.19110565  1
  O  O3218  1  0.90585403  0.84782136  0.11152587  1
  C  C3219  1  0.92231350  0.89010465  0.16601561  1
  C  C3220  1  0.92130231  0.88068498  0.12244438  1
  O  O3221  1  0.93468362  0.90371334  0.09488632  1
  Cu  Cu3222  1  0.91741943  0.91444842  0.04386561  1
  O  O3223  1  0.95441011  0.95036010  0.03034288  1
  C  C3224  1  0.94104562  0.92448639  0.17919730  1
  Cu  Cu3225  1  0.97650038  0.83453960  0.09167894  1
  H  H3226  1  0.95371958  0.94289951  0.15509005  1
  C  C3227  1  0.94660882  0.93079512  0.22016252  1
  C  C3228  1  0.91149094  0.86342987  0.23176619  1
  C  C3229  1  0.93265823  0.80999172  0.02758850  1
  O  O3230  1  0.95650424  0.83292379  0.03925636  1
  O  O3231  1  0.99626681  0.83478883  0.14224262  1
  H  H3232  1  0.97773555  0.80927360  0.20961026  1
  H  H3233  1  0.96209510  0.95676453  0.23218391  1
  C  C3234  1  0.97674232  0.93523539  0.01067163  1
  C  C3235  1  0.93246902  0.89728365  0.24386276  1
  H  H3236  1  0.77735870  0.81879576  0.01410559  1
  C  C3237  1  0.99004214  0.83762580  0.22341351  1
  H  H3238  1  0.75176816  0.81942128  0.06985075  1
  H  H3239  1  0.88665841  0.76091765  0.00190833  1
  H  H3240  1  0.87894637  0.51038704  0.25651582  1
  C  C3241  1  0.95440305  0.50232029  0.31333078  1
  C  C3242  1  0.96827719  0.55736158  0.25849142  1
  H  H3243  1  0.94587076  0.57595615  0.26436215  1
  H  H3244  1  0.75166424  0.68994022  0.45085791  1
  C  C3245  1  0.97485044  0.51801497  0.27707050  1
  H  H3246  1  0.77949592  0.52321811  0.43373569  1
  H  H3247  1  0.96825696  0.63051199  0.26385685  1
  C  C3248  1  0.76614454  0.70581186  0.42793099  1
  H  H3249  1  0.92580405  0.63493473  0.29289345  1
  C  C3250  1  0.92588208  0.51490133  0.37458254  1
  C  C3251  1  0.86450771  0.56574850  0.31374402  1
  C  C3252  1  0.88848301  0.58861221  0.29092363  1
  H  H3253  1  0.78377540  0.56512733  0.36546800  1
  H  H3254  1  0.91619272  0.53965269  0.39425917  1
  C  C3255  1  0.90848543  0.61854121  0.31038533  1
  C  C3256  1  0.79809279  0.69346907  0.41915683  1
  C  C3257  1  0.92020838  0.65726580  0.42053955  1
  C  C3258  1  0.81625187  0.71285941  0.38758760  1
  H  H3259  1  0.84044220  0.70292511  0.38603408  1
  C  C3260  1  0.84504950  0.65798026  0.45747028  1
  H  H3261  1  0.96044997  0.67674488  0.32984277  1
  C  C3262  1  0.90800896  0.62159491  0.35407790  1
  C  C3263  1  0.95362148  0.67883611  0.36285148  1
  C  C3264  1  0.92811311  0.65350684  0.37740618  1
  C  C3265  1  0.96893324  0.70955238  0.38695619  1
  C  C3266  1  0.81417512  0.65452893  0.44044505  1
  C  C3267  1  0.88332055  0.60292167  0.37697787  1
  H  H3268  1  0.87823727  0.60709701  0.40958411  1
  C  C3269  1  0.86367846  0.57352826  0.35512799  1
  C  C3270  1  0.94475801  0.53252513  0.34395795  1
  C  C3271  1  0.79344923  0.61823723  0.43922802  1
  C  C3272  1  0.80389386  0.57963993  0.45701909  1
  H  H3273  1  0.90165579  0.63864220  0.43633739  1
  H  H3274  1  0.85848210  0.68839683  0.45983863  1
  H  H3275  1  0.95292897  0.56751481  0.34250018  1
  H  H3276  1  0.76995974  0.61957590  0.42519998  1
  C  C3277  1  0.78179448  0.54029527  0.46129152  1
  H  H3278  1  0.83374550  0.57148247  0.40450151  1
  C  C3279  1  0.85389064  0.61670655  0.47203589  1
  C  C3280  1  0.93220287  0.68891963  0.44381866  1
  C  C3281  1  0.95859898  0.71423054  0.42731693  1
  C  C3282  1  0.84507034  0.54623071  0.38641798  1
  H  H3283  1  0.84736398  0.54675463  0.29776269  1
  C  C3284  1  0.78810872  0.52901498  0.36568285  1
  H  H3285  1  0.92506720  0.69455402  0.47549359  1
  C  C3286  1  0.83540023  0.57870922  0.47163608  1
  C  C3287  1  0.75549973  0.74063370  0.40557447  1
  C  C3288  1  0.80599121  0.74720866  0.36502510  1
  H  H3289  1  0.98767823  0.73080735  0.37285181  1
  H  H3290  1  0.98982170  0.63756375  0.38776248  1
  H  H3291  1  0.88501295  0.54890150  0.44739720  1
  C  C3292  1  0.90077809  0.56805510  0.46798803  1
  H  H3293  1  0.79317722  0.51728377  0.48406665  1
  C  C3294  1  0.97510673  0.74642451  0.45119162  1
  C  C3295  1  0.93133932  0.55614266  0.47612316  1
  H  H3296  1  0.94291707  0.52956299  0.46058565  1
  H  H3297  1  0.99987974  0.64847747  0.46280591  1
  C  C3298  1  0.88700075  0.60604318  0.48789004  1
  H  H3299  1  0.84480260  0.54985039  0.48574567  1
  H  H3300  1  0.95659574  0.74420937  0.27386298  1
  H  H3301  1  0.86295703  0.52976887  0.40608944  1
  C  C3302  1  0.81882630  0.51278187  0.37244825  1
  O  O3303  1  0.99767809  0.53974501  0.49383336  1
  H  H3304  1  0.90166644  0.83927510  0.25371232  1
  C  C3305  1  0.98495308  0.79788158  0.35949079  1
  O  O3306  1  0.80258655  0.97479192  0.27843943  1
  O  O3307  1  0.77760519  0.81185047  0.32310094  1
  C  C3308  1  0.98445156  0.77252639  0.32347197  1
  H  H3309  1  0.94821037  0.97120187  0.33196533  1
  C  C3310  1  0.78761301  0.83492865  0.43704394  1
  O  O3311  1  0.96809666  0.75376986  0.48494055  1
  H  H3312  1  0.87049764  0.95455571  0.49117586  1
  C  C3313  1  0.82324640  0.81039469  0.49049879  1
  H  H3314  1  0.92551568  0.97784436  0.47124036  1
  C  C3315  1  0.89604849  0.94223901  0.36041380  1
  H  H3316  1  0.77348377  0.82502160  0.40925161  1
  C  C3317  1  0.94134898  0.85501560  0.48438177  1
  H  H3318  1  0.93660671  0.82236686  0.49630371  1
  C  C3319  1  0.97217553  0.86975098  0.48022713  1
  C  C3320  1  0.83740018  0.93797151  0.32638808  1
  C  C3321  1  0.94176892  0.89769928  0.28828575  1
  H  H3322  1  0.82128107  0.76435868  0.34458724  1
  H  H3323  1  0.95378716  0.82227794  0.40766412  1
  H  H3324  1  0.96052986  0.92209476  0.43274664  1
  C  C3325  1  0.84169417  0.90989128  0.35982014  1
  Cu  Cu3326  1  0.78263372  0.87213094  0.31909152  1
  C  C3327  1  0.86227855  0.96295333  0.30562539  1
  H  H3328  1  0.90556977  0.76484027  0.30671458  1
  H  H3329  1  0.88455107  0.92413081  0.44262299  1
  C  C3330  1  0.89820875  0.80122874  0.38635332  1
  C  C3331  1  0.81118500  0.88498893  0.48383589  1
  Cu  Cu3332  1  0.78160321  0.92393946  0.37556101  1
  O  O3333  1  0.78194652  0.93114031  0.32258469  1
  C  C3334  1  0.93488448  0.92776543  0.42387400  1
  C  C3335  1  0.87733842  0.80968541  0.40975709  1
  C  C3336  1  0.95280653  0.95970288  0.36372779  1
  H  H3337  1  0.96389605  0.91678729  0.29685999  1
  C  C3338  1  0.89098465  0.96584207  0.32277487  1
  O  O3339  1  0.77983821  0.91083136  0.43040746  1
  C  C3340  1  0.87212989  0.91400118  0.37629875  1
  H  H3341  1  0.81510500  0.91825073  0.49357831  1
  H  H3342  1  0.93613584  0.87637167  0.34919175  1
  C  C3343  1  0.91028648  0.91445793  0.44860953  1
  C  C3344  1  0.91662724  0.88814812  0.48382959  1
  C  C3345  1  0.80669081  0.94815688  0.30788510  1
  H  H3346  1  0.90975114  0.98422063  0.30596268  1
  O  O3347  1  0.98061341  0.96598038  0.37691619  1
  C  C3348  1  0.77472911  0.76066352  0.37579462  1
  H  H3349  1  0.85538076  0.98176557  0.27745041  1
  H  H3350  1  0.87865554  0.89242949  0.40225307  1
  C  C3351  1  0.79141309  0.87867544  0.44907615  1
  C  C3352  1  0.92691814  0.87806860  0.31820332  1
  H  H3353  1  0.79935366  0.76716615  0.44798914  1
  C  C3354  1  0.92672650  0.79000969  0.36249744  1
  C  C3355  1  0.95588906  0.76097972  0.30388667  1
  C  C3356  1  0.92716304  0.77034314  0.32269081  1
  H  H3357  1  0.85634616  0.81569354  0.43044242  1
  C  C3358  1  0.95653120  0.80573980  0.37812243  1
  H  H3359  1  0.82314148  0.88475874  0.37059162  1
  C  C3360  1  0.92595530  0.94412177  0.38401476  1
  C  C3361  1  0.80239426  0.80107055  0.45717398  1
  C  C3362  1  0.76229303  0.79632192  0.35277184  1
  H  H3363  1  0.90398577  0.86276884  0.31199438  1
  H  H3364  1  0.98155085  0.81380384  0.28257810  1
  O  O3365  1  0.99779068  0.98922786  0.31120181  1
  C  C3366  1  0.99348253  0.83777820  0.26397250  1
  C  C3367  1  0.94111743  0.98839976  0.49720978  1
  C  C3368  1  0.82915520  0.66497672  0.56251314  1
  C  C3369  1  0.83890807  0.64946517  0.60137416  1
  C  C3370  1  0.83027607  0.60787778  0.61449592  1
  C  C3371  1  0.80874825  0.63818645  0.53817324  1
  C  C3372  1  0.81147086  0.58200449  0.58890773  1
  C  C3373  1  0.79909419  0.59818960  0.55225927  1
  H  H3374  1  0.78361209  0.57852872  0.53287169  1
  H  H3375  1  0.85209755  0.66835747  0.62219810  1
  C  C3376  1  0.80396008  0.53611904  0.59934492  1
  O  O3377  1  0.81844927  0.52000926  0.62816090  1
  H  H3378  1  0.84010648  0.59610366  0.64377556  1
  C  C3379  1  0.84185068  0.70500445  0.54295606  1
  H  H3380  1  0.88456637  0.68632663  0.57909341  1
  C  C3381  1  0.88643561  0.71047793  0.69557618  1
  C  C3382  1  0.91710531  0.70337477  0.68185598  1
  C  C3383  1  0.94206549  0.67453232  0.70577876  1
  C  C3384  1  0.87302296  0.70898912  0.55930510  1
  H  H3385  1  0.87704135  0.69317371  0.72331735  1
  H  H3386  1  0.94996734  0.63285266  0.54891059  1
  H  H3387  1  0.89190672  0.65459320  0.53556007  1
  C  C3388  1  0.93676905  0.61768085  0.52353878  1
  C  C3389  1  0.90412151  0.62799469  0.51797433  1
  C  C3390  1  0.77798475  0.71505347  0.66667902  1
  C  C3391  1  0.94555643  0.62977664  0.69896458  1
  H  H3392  1  0.93422146  0.61402655  0.67210885  1
  C  C3393  1  0.92790760  0.71869833  0.64355320  1
  O  O3394  1  0.78576125  0.51152466  0.57791517  1
  H  H3395  1  0.92692924  0.56462633  0.61779279  1
  C  C3396  1  0.94339283  0.55098597  0.64020214  1
  C  C3397  1  0.97609223  0.55666404  0.63416988  1
  C  C3398  1  0.96042460  0.69368763  0.73714081  1
  H  H3399  1  0.98431086  0.58078630  0.61188169  1
  C  C3400  1  0.76880510  0.71891386  0.70793028  1
  C  C3401  1  0.80734625  0.72561408  0.65143014  1
  H  H3402  1  0.81322250  0.72313084  0.61905147  1
  C  C3403  1  0.83077464  0.73739707  0.68058250  1
  C  C3404  1  0.86541287  0.73407370  0.66899505  1
  H  H3405  1  0.95251351  0.71625781  0.63568503  1
  O  O3406  1  0.87878292  0.53961700  0.65238775  1
  C  C3407  1  0.96479280  0.60302136  0.72284289  1
  C  C3408  1  0.82608471  0.73440209  0.51579539  1
  C  C3409  1  0.98302235  0.56994051  0.51582969  1
  C  C3410  1  0.93258253  0.52574608  0.67302536  1
  H  H3411  1  0.96886402  0.56766543  0.71740538  1
  C  C3412  1  0.99677994  0.53753867  0.66259237  1
  H  H3413  1  0.80000653  0.64931087  0.50896524  1
  H  H3414  1  0.96106369  0.72859181  0.73965464  1
  C  C3415  1  0.98598694  0.50941036  0.69395469  1
  C  C3416  1  0.94961601  0.58167995  0.50395883  1
  C  C3417  1  0.79388438  0.73101416  0.73563025  1
  C  C3418  1  0.82412951  0.74098282  0.72230665  1
  H  H3419  1  0.76207594  0.70482477  0.64175274  1
  C  C3420  1  0.89811627  0.51840693  0.67243197  1
  O  O3421  1  0.99676248  0.58620738  0.54279023  1
  C  C3422  1  0.95349221  0.50491688  0.70047405  1
  C  C3423  1  0.90672969  0.74233532  0.61890225  1
  O  O3424  1  0.76160448  0.70528732  0.56634484  1
  C  C3425  1  0.99953610  0.74551960  0.65129033  1
  H  H3426  1  0.99833999  0.74178877  0.68470270  1
  H  H3427  1  0.93684171  0.73242788  0.56455405  1
  H  H3428  1  0.86204550  0.61245201  0.74953480  1
  Cu  Cu3429  1  0.85936177  0.50200867  0.61440589  1
  H  H3430  1  0.80327368  0.72904728  0.50182563  1
  C  C3431  1  0.88732813  0.74902909  0.54868946  1
  H  H3432  1  0.84387778  0.75110066  0.74322027  1
  C  C3433  1  0.87471776  0.75189924  0.63181671  1
  C  C3434  1  0.91797327  0.75462550  0.57425853  1
  H  H3435  1  0.85859870  0.76817833  0.60857084  1
  C  C3436  1  0.76930361  0.79208193  0.54334571  1
  H  H3437  1  0.92856057  0.78716623  0.57152523  1
  C  C3438  1  0.76262431  0.83050631  0.69060428  1
  H  H3439  1  0.84316041  0.97479571  0.55486331  1
  C  C3440  1  0.87343085  0.78205515  0.52517911  1
  C  C3441  1  0.77317907  0.80158901  0.58336890  1
  Cu  Cu3442  1  0.84647936  0.93552615  0.70004408  1
  O  O3443  1  0.84089714  0.90514064  0.65284558  1
  H  H3444  1  0.88412614  0.86611766  0.61988361  1
  C  C3445  1  0.88193279  0.88305955  0.59001126  1
  C  C3446  1  0.85959957  0.91738575  0.58735672  1
  C  C3447  1  0.83791181  0.92649958  0.62062356  1
  Cu  Cu3448  1  0.95247550  0.89697210  0.63847913  1
  O  O3449  1  0.93984611  0.90127231  0.69518054  1
  C  C3450  1  0.92575521  0.93532624  0.70326063  1
  C  C3451  1  0.85762172  0.94578259  0.55362851  1
  C  C3452  1  0.90033181  0.87590525  0.55633221  1
  H  H3453  1  0.91878047  0.84977263  0.55734653  1
  C  C3454  1  0.95310427  0.95697932  0.52318556  1
  O  O3455  1  0.79086856  0.84182811  0.70078237  1
  H  H3456  1  0.84343988  0.83479209  0.70110493  1
  H  H3457  1  0.80268433  0.82510210  0.62936425  1
  C  C3458  1  0.77804222  0.81232660  0.62303718  1
  H  H3459  1  0.94771291  0.92320292  0.51766495  1
  Cu  Cu3460  1  0.90603279  0.95227169  0.62962951  1
  O  O3461  1  0.96708326  0.89991833  0.58333613  1
  O  O3462  1  0.82186162  0.96143287  0.62020902  1
  H  H3463  1  0.90139895  0.84152420  0.71693043  1
  C  C3464  1  0.97137121  0.96967042  0.55640375  1
  O  O3465  1  0.89968454  0.94701054  0.68402945  1
  O  O3466  1  0.94730327  0.83919780  0.64176458  1
  C  C3467  1  0.96675810  0.81210039  0.65801722  1
  O  O3468  1  0.96849189  0.80763867  0.69410988  1
  H  H3469  1  0.97965516  0.82188619  0.58276181  1
  C  C3470  1  0.75260909  0.81369764  0.65374299  1
  H  H3471  1  0.83985852  0.85864527  0.53075584  1
  C  C3472  1  0.85252068  0.85090753  0.73029053  1
  C  C3473  1  0.98678604  0.78183589  0.63248907  1
  C  C3474  1  0.98074332  0.93544347  0.58576658  1
  C  C3475  1  0.98984159  0.79004503  0.59093081  1
  C  C3476  1  0.87390259  0.93445797  0.51897912  1
  H  H3477  1  0.88340466  0.81369666  0.52512731  1
  C  C3478  1  0.93497272  0.96308254  0.73654367  1
  H  H3479  1  0.77275578  0.81906362  0.51981003  1
  C  C3480  1  0.89524253  0.89791621  0.51927670  1
  O  O3481  1  0.84545008  0.97178009  0.74675441  1
  O  O3482  1  0.75730983  0.76086943  0.51984801  1
  Cu  Cu3483  1  0.81991872  0.99759424  0.66715385  1
  C  C3484  1  0.88464936  0.85465191  0.73715870  1
  C  C3485  1  0.79479178  0.86003824  0.74514833  1
  H  H3486  1  0.98981060  0.78961664  0.74501132  1
  C  C3487  1  0.84102355  0.77432969  0.51165267  1
  H  H3488  1  0.94552454  0.83446157  0.73755954  1
  C  C3489  1  0.82612251  0.85254287  0.50396610  1
  O  O3490  1  0.80035419  0.61984700  0.75222800  1
  H  H3491  1  0.99900355  0.60473009  0.96656810  1
  C  C3492  1  0.97896562  0.66857927  0.76275518  1
  H  H3493  1  0.99128962  0.68007872  0.79031429  1
  C  C3494  1  0.97996292  0.62501929  0.75388503  1
  H  H3495  1  0.91832482  0.64128915  0.76620204  1
  Cu  Cu3496  1  0.95720704  0.52386090  0.87953488  1
  H  H3497  1  0.76749225  0.56247905  0.91896281  1
  C  C3498  1  0.98712593  0.65179694  0.91867793  1
  C  C3499  1  0.98254449  0.70003793  0.85281624  1
  C  C3500  1  0.80686570  0.64685532  0.77632021  1
  C  C3501  1  0.77086718  0.66923695  0.88678113  1
  O  O3502  1  0.92773460  0.56907625  0.86380320  1
  H  H3503  1  0.87337975  0.58904991  0.83029921  1
  C  C3504  1  0.86652709  0.64079577  0.76765995  1
  C  C3505  1  0.84004351  0.65957980  0.78709655  1
  C  C3506  1  0.89642184  0.65636760  0.77761066  1
  O  O3507  1  0.92849729  0.58526967  0.92736483  1
  C  C3508  1  0.95198784  0.68332499  0.84320447  1
  C  C3509  1  0.89864405  0.69237762  0.80469808  1
  H  H3510  1  0.94379703  0.65237055  0.85592746  1
  C  C3511  1  0.86501293  0.60023094  0.93354007  1
  C  C3512  1  0.87919021  0.59399979  0.89512946  1
  C  C3513  1  0.91335910  0.58293109  0.89484080  1
  C  C3514  1  0.81623480  0.61626343  0.89823297  1
  C  C3515  1  0.86206427  0.59553551  0.85929817  1
  C  C3516  1  0.82996635  0.60601148  0.86094309  1
  C  C3517  1  0.93242122  0.70822677  0.81635204  1
  H  H3518  1  0.96242367  0.65387033  0.92506827  1
  H  H3519  1  0.81550850  0.60747247  0.83314105  1
  C  C3520  1  0.78051485  0.62660805  0.89560300  1
  C  C3521  1  0.84290022  0.69219466  0.81612103  1
  O  O3522  1  0.78541074  0.66795469  0.79786915  1
  C  C3523  1  0.83340457  0.61337881  0.93543076  1
  H  H3524  1  0.81563453  0.53722294  0.94867028  1
  H  H3525  1  0.78693752  0.69176852  0.87185302  1
  C  C3526  1  0.87247243  0.71007174  0.82454326  1
  H  H3527  1  0.87809296  0.59786226  0.96343760  1
  H  H3528  1  0.82276914  0.62123851  0.96484357  1
  Cu  Cu3529  1  0.93858066  0.53911187  0.95979513  1
  H  H3530  1  0.82193270  0.70806495  0.83074440  1
  C  C3531  1  0.79897324  0.51046734  0.95292483  1
  H  H3532  1  0.87851774  0.73597201  0.84705759  1
  C  C3533  1  0.99784110  0.59831560  0.78506916  1
  O  O3534  1  0.99560313  0.55644593  0.77631877  1
  H  H3535  1  0.78707545  0.73379155  0.76802886  1
  C  C3536  1  0.75889116  0.59468786  0.91005926  1
  C  C3537  1  0.99672382  0.73506953  0.83092748  1
  C  C3538  1  0.94471577  0.74802950  0.80135915  1
  C  C3539  1  0.78417657  0.50111931  0.99063148  1
  C  C3540  1  0.97084500  0.91085143  0.88455131  1
  C  C3541  1  0.93543617  0.89835075  0.82527506  1
  C  C3542  1  0.94910618  0.94073288  0.90216439  1
  C  C3543  1  0.99739531  0.89656589  0.90897917  1
  H  H3544  1  0.87224621  0.75223392  0.92701017  1
  C  C3545  1  0.99995236  0.90726958  0.94925070  1
  C  C3546  1  0.89112953  0.77316694  0.93717018  1
  H  H3547  1  0.99388991  0.96612000  0.80881531  1
  C  C3548  1  0.82840034  0.86582498  0.75648468  1
  C  C3549  1  0.86978096  0.88751842  0.80549709  1
  C  C3550  1  0.95133073  0.95164377  0.94310506  1
  C  C3551  1  0.92382697  0.80938858  0.98518490  1
  C  C3552  1  0.93292868  0.82654669  0.91621933  1
  H  H3553  1  0.88509453  0.85560682  0.96387272  1
  C  C3554  1  0.97353410  0.97770922  0.78921578  1
  H  H3555  1  0.93020004  0.95560336  0.88294239  1
  O  O3556  1  0.86789135  0.97896304  0.98092615  1
  H  H3557  1  0.99973385  0.99905808  0.85725067  1
  C  C3558  1  0.80345269  0.84736683  0.94563765  1
  O  O3559  1  0.90023509  0.92701586  0.99377881  1
  C  C3560  1  0.79657177  0.89224148  0.93807430  1
  H  H3561  1  0.81348999  0.95724819  0.94684282  1
  H  H3562  1  0.97551246  0.92018548  0.75231718  1
  C  C3563  1  0.90677091  0.79933108  0.90792050  1
  C  C3564  1  0.85967283  0.86466960  0.95887551  1
  C  C3565  1  0.96472992  0.88984585  0.84371931  1
  C  C3566  1  0.97827333  0.75644803  0.80213605  1
  H  H3567  1  0.87311709  0.98939201  0.80356504  1
  H  H3568  1  0.76620369  0.80223037  0.88121159  1
  H  H3569  1  0.92765443  0.76825964  0.78444216  1
  H  H3570  1  0.91827180  0.91892964  0.84038355  1
  H  H3571  1  0.96398267  0.84898210  0.96278836  1
  C  C3572  1  0.97508412  0.93240485  0.96649814  1
  C  C3573  1  0.99345099  0.79414096  0.77874244  1
  C  C3574  1  0.88218630  0.80520796  0.83330225  1
  C  C3575  1  0.83588094  0.83328156  0.95190863  1
  C  C3576  1  0.92661510  0.87559510  0.78888085  1
  C  C3577  1  0.76616502  0.80458979  0.98660871  1
  H  H3578  1  0.77196584  0.90142766  0.92832886  1
  C  C3579  1  0.96314795  0.95078187  0.75693907  1
  C  C3580  1  0.98440653  0.85655073  0.82808122  1
  H  H3581  1  0.84341054  0.79911036  0.94986624  1
  C  C3582  1  0.83799429  0.88310862  0.79485217  1
  C  C3583  1  0.89439501  0.80045386  0.86584803  1
  C  C3584  1  0.77578263  0.81551253  0.94705444  1
  C  C3585  1  0.84952280  0.90835016  0.96354930  1
  O  O3586  1  0.77305343  0.86384119  0.76628362  1
  H  H3587  1  0.86975945  0.81451631  0.80579779  1
  C  C3588  1  0.94953099  0.84983970  0.76826199  1
  H  H3589  1  0.81861228  0.89536994  0.81314721  1
  C  C3590  1  0.89968621  0.77927425  0.97675393  1
  C  C3591  1  0.97658431  0.83706049  0.79113369  1
  H  H3592  1  0.93407035  0.97329217  0.95802632  1
  C  C3593  1  0.81940716  0.92325237  0.94889408  1
  H  H3594  1  0.87557176  0.89838548  0.83695155  1
  C  C3595  1  0.87266891  0.94116143  0.98063462  1
  C  C3596  1  0.89310956  0.87502227  0.77580337  1
  C  C3597  1  0.76117285  0.79495931  0.91266705  1
  C  C3598  1  0.94296156  0.83128921  0.95580646  1
  H  H3599  1  0.94418143  0.84209001  0.89078983  1
