# generated using pymatgen
data_CuH16(C5N)4
_symmetry_space_group_name_H-M   'P 1'
_cell_length_a   17.59751154
_cell_length_b   20.47096770
_cell_length_c   50.38440908
_cell_angle_alpha   90.00000000
_cell_angle_beta   90.00000000
_cell_angle_gamma   90.00000000
_symmetry_Int_Tables_number   1
_chemical_formula_structural   CuH16(C5N)4
_chemical_formula_sum   'Cu32 H512 C640 N128'
_cell_volume   18150.38331235
_cell_formula_units_Z   32
loop_
 _symmetry_equiv_pos_site_id
 _symmetry_equiv_pos_as_xyz
  1  'x, y, z'
loop_
 _atom_site_type_symbol
 _atom_site_label
 _atom_site_symmetry_multiplicity
 _atom_site_fract_x
 _atom_site_fract_y
 _atom_site_fract_z
 _atom_site_occupancy
  H  H0  1  0.25121217  0.19220892  0.07395409  1
  H  H1  1  0.32457004  0.28450342  0.07509292  1
  H  H2  1  0.25346981  0.31642079  0.05254785  1
  C  C3  1  0.16351319  0.33076223  0.08212827  1
  C  C4  1  0.19231770  0.32378298  0.05696913  1
  N  N5  1  0.15379060  0.31824652  0.03427222  1
  C  C6  1  0.38631380  0.27417718  0.07785999  1
  C  C7  1  0.40476130  0.21433127  0.09140134  1
  C  C8  1  0.27219937  0.15952651  0.09062288  1
  H  H9  1  0.29631355  0.27517343  0.23360168  1
  C  C10  1  0.04174718  0.41257009  0.23893970  1
  H  H11  1  0.20446850  0.34267423  0.09846783  1
  H  H12  1  0.36361233  0.49618563  0.03708195  1
  H  H13  1  0.47812159  0.48187605  0.12121163  1
  C  C14  1  0.44741733  0.31450618  0.06945528  1
  H  H15  1  0.43908178  0.36063330  0.05892567  1
  C  C16  1  0.25170296  0.47132559  0.10122970  1
  H  H17  1  0.16484894  0.11006726  0.09721832  1
  C  C18  1  0.08327580  0.33099996  0.08583958  1
  C  C19  1  0.07915909  0.32305981  0.03666338  1
  H  H20  1  0.00846780  0.22705081  0.09031480  1
  C  C21  1  0.22474693  0.11574690  0.10291443  1
  N  N22  1  0.17117790  0.01544625  0.19451179  1
  C  C23  1  0.02426878  0.19021765  0.10469648  1
  H  H24  1  0.13634169  0.23833116  0.11924543  1
  C  C25  1  0.09125401  0.19902049  0.11965333  1
  C  C26  1  0.49648511  0.25777741  0.17898929  1
  C  C27  1  0.40110440  0.19055949  0.20014870  1
  H  H28  1  0.09356100  0.46732256  0.07458018  1
  C  C29  1  0.05076574  0.34245799  0.11378673  1
  H  H30  1  0.22057663  0.49064009  0.03943270  1
  C  C31  1  0.29931761  0.16182611  0.23607936  1
  C  C32  1  0.06504646  0.10796731  0.14465223  1
  C  C33  1  0.34892188  0.16273150  0.10085225  1
  N  N34  1  0.11055835  0.16040859  0.14006329  1
  H  H35  1  0.08692178  0.08369977  0.16183625  1
  C  C36  1  0.46411737  0.48895002  0.07830244  1
  H  H37  1  0.04582597  0.17737086  0.18680529  1
  H  H38  1  0.24064639  0.06852250  0.22081100  1
  Cu  Cu39  1  0.05811530  0.15326115  0.24060952  1
  C  C40  1  0.26651576  0.28162511  0.13488675  1
  C  C41  1  0.24041456  0.03235236  0.20498016  1
  N  N42  1  0.21522187  0.47892523  0.07851550  1
  H  H43  1  0.06279404  0.43732494  0.17080928  1
  C  C44  1  0.49271260  0.03465073  0.09600337  1
  H  H45  1  0.35646471  0.47847308  0.12274867  1
  C  C46  1  0.30799321  0.00394777  0.19652379  1
  C  C47  1  0.29729263  0.39219572  0.16328494  1
  C  C48  1  0.04618379  0.40285793  0.15461953  1
  C  C49  1  0.32104044  0.18009849  0.21010220  1
  H  H50  1  0.48378777  0.35148900  0.11390475  1
  H  H51  1  0.17240542  0.37498517  0.16835635  1
  Cu  Cu52  1  0.07118582  0.04583074  0.21019001  1
  C  C53  1  0.09031835  0.34719685  0.20732555  1
  C  C54  1  0.36645727  0.11990707  0.12155943  1
  H  H55  1  0.04781158  0.32618772  0.01697984  1
  H  H56  1  0.13437882  0.41665495  0.12438206  1
  H  H57  1  0.13738125  0.20138914  0.18764890  1
  H  H58  1  0.21219122  0.46068195  0.11780236  1
  C  C59  1  0.15707083  0.33246018  0.21988027  1
  C  C60  1  0.08469165  0.39121730  0.13064792  1
  C  C61  1  0.04275100  0.32822955  0.06162837  1
  H  H62  1  0.39270238  0.27771324  0.12564736  1
  N  N63  1  0.21144412  0.30623373  0.14889409  1
  H  H64  1  0.44842354  0.10473662  0.21948070  1
  C  C65  1  0.35900354  0.36190883  0.14908250  1
  H  H66  1  0.37618683  0.27645676  0.17543653  1
  H  H67  1  0.40662195  0.41732105  0.19237094  1
  H  H68  1  0.41650689  0.12191976  0.13364582  1
  C  C69  1  0.25653731  0.19526242  0.19353399  1
  C  C70  1  0.44082963  0.38466231  0.15249010  1
  N  N71  1  0.03039454  0.38123477  0.21616923  1
  C  C72  1  0.45990999  0.14648497  0.20707186  1
  C  C73  1  0.31180976  0.07799017  0.13248399  1
  N  N74  1  0.16270980  0.16807910  0.22643059  1
  H  H75  1  0.30768476  0.43293819  0.17572950  1
  H  H76  1  0.26414447  0.21232492  0.17296379  1
  C  C77  1  0.45542064  0.41016400  0.17780280  1
  C  C78  1  0.42080862  0.24688478  0.18414472  1
  C  C79  1  0.18350844  0.18850357  0.20150658  1
  H  H80  1  0.20058626  0.29948081  0.21148788  1
  H  H81  1  0.31063788  0.04979871  0.15128391  1
  H  H82  1  0.43768056  0.02241770  0.08674074  1
  C  C83  1  0.33990009  0.30558642  0.13432916  1
  H  H84  1  0.07606513  0.33108354  0.18713721  1
  C  C85  1  0.22745836  0.36043666  0.16086251  1
  H  H86  1  0.25471858  0.23380202  0.12483938  1
  N  N87  1  0.24226959  0.07131047  0.12151215  1
  C  C88  1  0.33142602  0.47792955  0.10294045  1
  C  C89  1  0.49788425  0.37041567  0.13349955  1
  C  C90  1  0.03561706  0.48473869  0.07442101  1
  C  C91  1  0.37783730  0.48404310  0.08028505  1
  C  C92  1  0.33558398  0.48735895  0.05589212  1
  C  C93  1  0.16444097  0.35735916  0.24642914  1
  H  H94  1  0.47716289  0.00179762  0.13741476  1
  C  C95  1  0.00321672  0.09223116  0.12792966  1
  C  C96  1  0.25772265  0.48303566  0.05646385  1
  C  C97  1  0.26388210  0.48855060  0.24622988  1
  H  H98  1  0.36326548  0.01075061  0.20835554  1
  C  C99  1  0.48383158  0.20106574  0.09337917  1
  C  C100  1  0.34079292  0.47186577  0.24582733  1
  C  C101  1  0.22119724  0.15824588  0.24195580  1
  C  C102  1  0.31277182  0.11310695  0.31907774  1
  C  C103  1  0.03895627  0.17073953  0.30205432  1
  C  C104  1  0.13965357  0.23985117  0.32385886  1
  C  C105  1  0.39346645  0.10874724  0.31997256  1
  H  H106  1  0.42547373  0.07457620  0.30717598  1
  C  C107  1  0.26157493  0.07723415  0.30207829  1
  H  H108  1  0.04915000  0.18964021  0.34321544  1
  C  C109  1  0.43236618  0.15067243  0.33606718  1
  C  C110  1  0.07350982  0.19866255  0.32354943  1
  C  C111  1  0.24743576  0.39138260  0.28140266  1
  N  N112  1  0.37475293  0.35692731  0.28749510  1
  C  C113  1  0.31855843  0.39635244  0.29445310  1
  C  C114  1  0.16919811  0.27321010  0.34772186  1
  H  H115  1  0.22004279  0.35280891  0.32530337  1
  C  C116  1  0.20744432  0.33357999  0.34512761  1
  H  H117  1  0.19922778  0.42475807  0.28705976  1
  C  C118  1  0.16635237  0.25490476  0.29772443  1
  N  N119  1  0.06892155  0.18357877  0.27823056  1
  C  C120  1  0.12409445  0.23160222  0.27741314  1
  H  H121  1  0.21340658  0.28756008  0.29384043  1
  H  H122  1  0.12469112  0.24385003  0.25657583  1
  H  H123  1  0.45384564  0.28659115  0.31863150  1
  H  H124  1  0.19384391  0.13316929  0.25912149  1
  N  N125  1  0.42787387  0.41304214  0.36189900  1
  H  H126  1  0.33258846  0.43023389  0.31080472  1
  C  C127  1  0.18263477  0.07838331  0.30337325  1
  H  H128  1  0.15109977  0.10768905  0.31765318  1
  H  H129  1  0.06545543  0.32377482  0.33991163  1
  C  C130  1  0.28228060  0.15747001  0.33893397  1
  N  N131  1  0.40287002  0.19358807  0.35329977  1
  C  C132  1  0.32719061  0.19163893  0.35622330  1
  C  C133  1  0.24045237  0.34938187  0.25926173  1
  H  H134  1  0.10570009  0.42221040  0.27461953  1
  H  H135  1  0.22285633  0.16447143  0.34054737  1
  C  C136  1  0.14028133  0.03947859  0.28556290  1
  C  C137  1  0.39895817  0.47165982  0.35745839  1
  H  H138  1  0.34407325  0.14695856  0.25057235  1
  Cu  Cu139  1  0.02106039  0.04161288  0.25629208  1
  H  H140  1  0.04163315  0.22936891  0.43206131  1
  C  C141  1  0.37920900  0.00317689  0.49595629  1
  C  C142  1  0.36446257  0.31696174  0.26694427  1
  C  C143  1  0.28815125  0.03516612  0.27928096  1
  H  H144  1  0.30240262  0.22551170  0.37076641  1
  H  H145  1  0.35181081  0.47366721  0.37217459  1
  H  H146  1  0.29023673  0.28017938  0.41240282  1
  H  H147  1  0.46432256  0.01003782  0.34991274  1
  C  C148  1  0.03728057  0.18979731  0.41627225  1
  C  C149  1  0.00529383  0.33266591  0.33686993  1
  C  C150  1  0.22603553  0.36881364  0.36864462  1
  H  H151  1  0.26472226  0.41462745  0.36889837  1
  C  C152  1  0.32278487  0.09514697  0.47138791  1
  H  H153  1  0.42284580  0.29544302  0.26274657  1
  H  H154  1  0.11376566  0.39978984  0.36753020  1
  H  H155  1  0.18390177  0.31079978  0.43419063  1
  H  H156  1  0.02995815  0.01992467  0.46598356  1
  H  H157  1  0.44349908  0.19847546  0.42774999  1
  H  H158  1  0.04906151  0.05940859  0.36203738  1
  C  C159  1  0.22779129  0.00852151  0.26868665  1
  C  C160  1  0.02352432  0.28722437  0.48271638  1
  Cu  Cu161  1  0.46903433  0.24675590  0.37395944  1
  C  C162  1  0.12987483  0.30803068  0.44626753  1
  H  H163  1  0.20735792  0.07198871  0.45366704  1
  C  C164  1  0.31498989  0.25728775  0.43091808  1
  C  C165  1  0.48819018  0.40619769  0.34630828  1
  Cu  Cu166  1  0.24090373  0.23400017  0.47536050  1
  C  C167  1  0.15422899  0.25991588  0.37618930  1
  H  H168  1  0.08082113  0.03229855  0.28827658  1
  Cu  Cu169  1  0.37895089  0.37776572  0.43537900  1
  C  C170  1  0.09992456  0.46654819  0.40069672  1
  Cu  Cu171  1  0.39175012  0.34570907  0.38508944  1
  C  C172  1  0.03787338  0.09630990  0.37764279  1
  H  H173  1  0.43125548  0.09645006  0.49198819  1
  C  C174  1  0.09410320  0.25748410  0.48444984  1
  N  N175  1  0.38381041  0.04279078  0.40681476  1
  C  C176  1  0.33232341  0.16368379  0.45922001  1
  C  C177  1  0.08353778  0.09840471  0.40079462  1
  H  H178  1  0.45432731  0.09961230  0.38587604  1
  H  H179  1  0.42627610  0.30253183  0.47812806  1
  C  C180  1  0.38296788  0.06878677  0.48738033  1
  C  C181  1  0.07574631  0.42238242  0.38137985  1
  Cu  Cu182  1  0.12760140  0.46311734  0.45878613  1
  C  C183  1  0.44914158  0.04877081  0.39336767  1
  N  N184  1  0.14656703  0.27309209  0.46744794  1
  C  C185  1  0.17798811  0.30918482  0.39156291  1
  C  C186  1  0.38042903  0.20242085  0.47529369  1
  N  N187  1  0.21149431  0.36407891  0.39576087  1
  H  H188  1  0.40577422  0.18090787  0.49386586  1
  H  H189  1  0.11945348  0.21844045  0.38402997  1
  Cu  Cu190  1  0.23634325  0.41060161  0.42982274  1
  H  H191  1  0.04410391  0.36247119  0.42188031  1
  H  H192  1  0.15724991  0.48601004  0.40348181  1
  H  H193  1  0.11032449  0.36209270  0.49068134  1
  H  H194  1  0.49393479  0.15580856  0.33598369  1
  N  N195  1  0.08854735  0.14432506  0.41929224  1
  C  C196  1  0.39323981  0.26631198  0.46636898  1
  C  C197  1  0.25873351  0.05460692  0.46591213  1
  Cu  Cu198  1  0.28547831  0.47611311  0.47233426  1
  N  N199  1  0.35864043  0.29310068  0.44604276  1
  H  H200  1  0.12986611  0.06239344  0.40658199  1
  H  H201  1  0.25772482  0.16356722  0.42494127  1
  C  C202  1  0.00481102  0.32979757  0.46229942  1
  Cu  Cu203  1  0.27698610  0.34987239  0.47540411  1
  C  C204  1  0.05735225  0.33317079  0.44078569  1
  C  C205  1  0.29953933  0.19073754  0.43619890  1
  H  H206  1  0.34653377  0.01977876  0.27584990  1
  H  H207  1  0.46891483  0.41996017  0.26706368  1
  H  H208  1  0.00214159  0.29434393  0.29492410  1
  H  H209  1  0.48360684  0.11413550  0.27353153  1
  H  H210  1  0.49080318  0.07919605  0.44529658  1
  H  H211  1  0.42390526  0.37551672  0.48660975  1
  N  N212  1  0.12085510  0.45823260  0.49587728  1
  N  N213  1  0.05123114  0.49658162  0.41760809  1
  H  H214  1  0.21653254  0.45821682  0.25047270  1
  C  C215  1  0.10498691  0.40158539  0.25433805  1
  H  H216  1  0.36111716  0.42653199  0.25336111  1
  C  C217  1  0.30152878  0.30731598  0.25099441  1
  C  C218  1  0.22797000  0.26437254  0.55683825  1
  H  H219  1  0.31766749  0.12276571  0.53944625  1
  C  C220  1  0.19582100  0.20671171  0.56865204  1
  C  C221  1  0.36458375  0.16880902  0.59046194  1
  C  C222  1  0.39641240  0.28316687  0.58570071  1
  C  C223  1  0.36580484  0.22478661  0.57420540  1
  H  H224  1  0.34833484  0.22335008  0.55341749  1
  C  C225  1  0.17996444  0.20606447  0.59818704  1
  C  C226  1  0.17640187  0.15597782  0.55093976  1
  H  H227  1  0.14787056  0.11453014  0.55974690  1
  C  C228  1  0.19308283  0.16142363  0.52334740  1
  H  H229  1  0.24520439  0.30532413  0.56916475  1
  C  C230  1  0.12164094  0.16863727  0.61043617  1
  H  H231  1  0.07800384  0.14098320  0.60024292  1
  H  H232  1  0.28358623  0.25823274  0.60665713  1
  H  H233  1  0.40633214  0.33080127  0.57673366  1
  C  C234  1  0.24129297  0.26482259  0.52982282  1
  C  C235  1  0.29760633  0.40828943  0.52934710  1
  C  C236  1  0.33258471  0.42481826  0.55296867  1
  H  H237  1  0.23676329  0.40753900  0.52630947  1
  C  C238  1  0.38451492  0.17436706  0.61771906  1
  N  N239  1  0.41100550  0.28784481  0.61142244  1
  C  C240  1  0.41340070  0.42122782  0.55317593  1
  C  C241  1  0.32290218  0.08358306  0.55539216  1
  C  C242  1  0.34196594  0.10110191  0.58154641  1
  C  C243  1  0.45086790  0.40875778  0.52842776  1
  C  C244  1  0.44275523  0.44726489  0.60278998  1
  C  C245  1  0.11519283  0.43587400  0.55245157  1
  C  C246  1  0.11009983  0.42469835  0.58217051  1
  H  H247  1  0.27393042  0.30263120  0.51931706  1
  C  C248  1  0.10987272  0.38585483  0.53360105  1
  C  C249  1  0.11028967  0.35911287  0.59192762  1
  C  C250  1  0.10157601  0.34907085  0.61865075  1
  H  H251  1  0.36006223  0.05322594  0.61947028  1
  C  C252  1  0.34361528  0.04723121  0.59881924  1
  C  C253  1  0.46556129  0.42572703  0.57678708  1
  N  N254  1  0.22800569  0.21230567  0.51316001  1
  H  H255  1  0.09928410  0.33324754  0.53738691  1
  H  H256  1  0.12473518  0.31688865  0.57842706  1
  H  H257  1  0.46852122  0.06230106  0.57338699  1
  C  C258  1  0.09228278  0.47653480  0.60004120  1
  C  C259  1  0.23308287  0.23581414  0.61591680  1
  H  H260  1  0.30265829  0.44228763  0.57069678  1
  C  C261  1  0.40550148  0.23662451  0.62772378  1
  C  C262  1  0.07726629  0.45571521  0.62539169  1
  H  H263  1  0.38328623  0.46741847  0.60581965  1
  H  H264  1  0.18638752  0.12338854  0.50734670  1
  H  H265  1  0.11443329  0.03376262  0.59792125  1
  H  H266  1  0.38166426  0.13189498  0.63139575  1
  H  H267  1  0.20808361  0.46382846  0.62778547  1
  H  H268  1  0.10918099  0.29957413  0.62809785  1
  C  C269  1  0.14185962  0.01801076  0.61577786  1
  H  H270  1  0.06071656  0.48378333  0.64276958  1
  H  H271  1  0.31634592  0.33957587  0.64129010  1
  C  C272  1  0.40759412  0.39165050  0.50669261  1
  H  H273  1  0.49168053  0.16095882  0.56612738  1
  H  H274  1  0.23477178  0.09048112  0.61917583  1
  H  H275  1  0.41739582  0.24897615  0.64902835  1
  C  C276  1  0.45666989  0.08242092  0.65861484  1
  H  H277  1  0.26970314  0.24037820  0.65906074  1
  H  H278  1  0.08106935  0.35954122  0.71683965  1
  C  C279  1  0.46090748  0.18108659  0.68526261  1
  N  N280  1  0.33096367  0.38857661  0.50598324  1
  C  C281  1  0.41353211  0.13129998  0.67600913  1
  C  C282  1  0.43748178  0.01435311  0.65973206  1
  C  C283  1  0.30923054  0.01948406  0.54781411  1
  N  N284  1  0.08174105  0.39578799  0.63584266  1
  C  C285  1  0.42359013  0.23316992  0.69829989  1
  N  N286  1  0.35560408  0.36399025  0.67610934  1
  H  H287  1  0.04175433  0.16951953  0.52779664  1
  C  C288  1  0.11532504  0.17011198  0.63834276  1
  H  H289  1  0.28060136  0.44383460  0.72843118  1
  C  C290  1  0.22726183  0.22889683  0.64349018  1
  N  N291  1  0.16448138  0.19860705  0.65406474  1
  H  H292  1  0.24534103  0.20093551  0.69835949  1
  C  C293  1  0.01715319  0.19481179  0.54609155  1
  C  C294  1  0.21865018  0.41882357  0.69355886  1
  H  H295  1  0.49999305  0.44233696  0.70513057  1
  C  C296  1  0.34957454  0.39045686  0.69976835  1
  C  C297  1  0.33274250  0.13522873  0.67981478  1
  H  H298  1  0.18432774  0.39166622  0.65352799  1
  H  H299  1  0.48246784  0.47157881  0.64348968  1
  H  H300  1  0.07525070  0.14454475  0.65175616  1
  C  C301  1  0.28230625  0.41886632  0.70962134  1
  C  C302  1  0.49105593  0.02880591  0.55789801  1
  C  C303  1  0.29611163  0.35785940  0.66064656  1
  C  C304  1  0.13868191  0.44598395  0.69946253  1
  N  N305  1  0.34925129  0.23601520  0.70456676  1
  C  C306  1  0.22854777  0.39088256  0.66822990  1
  C  C307  1  0.30533823  0.18738065  0.69548029  1
  H  H308  1  0.40550907  0.38761456  0.71033992  1
  C  C309  1  0.49238580  0.44792531  0.62393643  1
  C  C310  1  0.07618653  0.40976849  0.70960655  1
  H  H311  1  0.29472613  0.09924667  0.67043858  1
  C  C312  1  0.11682031  0.49803670  0.53947458  1
  H  H313  1  0.29733823  0.01134547  0.52693379  1
  C  C314  1  0.11787864  0.39964451  0.50629315  1
  C  C315  1  0.00401112  0.44008540  0.71170766  1
  H  H316  1  0.44508155  0.27874347  0.70605781  1
  C  C317  1  0.20566873  0.04886575  0.62674707  1
  N  N318  1  0.02105659  0.25791963  0.54212632  1
  N  N319  1  0.23378760  0.03218953  0.65007940  1
  H  H320  1  0.29909571  0.47061831  0.66757615  1
  C  C321  1  0.25736185  0.49553152  0.62810830  1
  H  H322  1  0.10969286  0.22713161  0.50105542  1
  C  C323  1  0.16905594  0.63788889  0.06714503  1
  H  H324  1  0.13041833  0.59493467  0.06001909  1
  C  C325  1  0.24753629  0.63621206  0.07349093  1
  N  N326  1  0.12475144  0.68997896  0.06971055  1
  H  H327  1  0.27939821  0.58975850  0.07117213  1
  C  C328  1  0.27901270  0.69362088  0.08450256  1
  H  H329  1  0.49876065  0.74710867  0.13688206  1
  H  H330  1  0.19491338  0.53088614  0.20144047  1
  C  C331  1  0.15639705  0.74199907  0.07888377  1
  C  C332  1  0.23281475  0.74907386  0.08661524  1
  H  H333  1  0.11564591  0.78208869  0.08276631  1
  C  C334  1  0.17532187  0.97596276  0.17377837  1
  C  C335  1  0.06825683  0.93165717  0.11395142  1
  N  N336  1  0.23719333  0.54877667  0.24126589  1
  H  H337  1  0.12039128  0.96846855  0.16437626  1
  C  C338  1  0.42510985  0.72752849  0.20104472  1
  H  H339  1  0.36730234  0.81264896  0.23318662  1
  Cu  Cu340  1  0.09363977  0.94854097  0.23882380  1
  C  C341  1  0.20598230  0.77486545  0.24275920  1
  H  H342  1  0.17584148  0.65875848  0.21203697  1
  C  C343  1  0.48207600  0.64330076  0.08820262  1
  H  H344  1  0.33853019  0.91317637  0.12156537  1
  H  H345  1  0.23075965  0.65076255  0.16422677  1
  H  H346  1  0.30769975  0.58867800  0.11720233  1
  H  H347  1  0.15574050  0.59748231  0.12154014  1
  C  C348  1  0.21046946  0.69578509  0.20232259  1
  H  H349  1  0.37915660  0.61160181  0.06653839  1
  C  C350  1  0.49305931  0.75332335  0.21131745  1
  C  C351  1  0.44252183  0.91709177  0.17898067  1
  C  C352  1  0.30886821  0.95951920  0.17496551  1
  H  H353  1  0.04182148  0.93362150  0.17551723  1
  C  C354  1  0.19288187  0.58036911  0.13752720  1
  C  C355  1  0.36085818  0.69033457  0.09477792  1
  C  C356  1  0.41534486  0.84479744  0.23285156  1
  C  C357  1  0.01187149  0.90856915  0.09606148  1
  C  C358  1  0.07556483  0.54942545  0.17017392  1
  C  C359  1  0.05114653  0.77288130  0.19176591  1
  H  H360  1  0.40433026  0.63068908  0.23436145  1
  C  C361  1  0.28714548  0.59669121  0.23981784  1
  H  H362  1  0.25226066  0.79519516  0.09440965  1
  H  H363  1  0.09231948  0.73558512  0.18708164  1
  C  C364  1  0.26064449  0.81038368  0.20049281  1
  H  H365  1  0.33275009  0.52409962  0.19166102  1
  H  H366  1  0.36990730  0.75451038  0.20299017  1
  C  C367  1  0.38529988  0.90662563  0.13569797  1
  C  C368  1  0.22374008  0.75865963  0.21442896  1
  C  C369  1  0.29043787  0.53974765  0.17727600  1
  C  C370  1  0.40401597  0.64551259  0.08038823  1
  H  H371  1  0.01872892  0.65575808  0.15534717  1
  C  C372  1  0.36582078  0.58691939  0.23628944  1
  C  C373  1  0.23199401  0.69541853  0.17589110  1
  N  N374  1  0.10853272  0.89068255  0.12865607  1
  N  N375  1  0.26314600  0.74413015  0.16219089  1
  H  H376  1  0.43602709  0.92208197  0.20005836  1
  C  C377  1  0.37840061  0.92897045  0.16193690  1
  H  H378  1  0.27399864  0.85711371  0.21023847  1
  N  N379  1  0.32074136  0.55781353  0.15379871  1
  N  N380  1  0.04555594  0.88103574  0.21622593  1
  H  H381  1  0.47117366  0.85507472  0.10875291  1
  C  C382  1  0.27279281  0.57587579  0.13450269  1
  H  H383  1  0.07884085  0.56921644  0.21422744  1
  H  H384  1  0.04012003  0.51968884  0.12974164  1
  H  H385  1  0.30666958  0.83343710  0.15991435  1
  H  H386  1  0.13792760  0.83708812  0.21277411  1
  C  C387  1  0.27877734  0.80112639  0.17384209  1
  C  C388  1  0.23759052  0.94518363  0.16218330  1
  C  C389  1  0.43312948  0.67092229  0.18599402  1
  H  H390  1  0.38872507  0.64517575  0.17414491  1
  H  H391  1  0.25654299  0.64120654  0.23678539  1
  C  C392  1  0.45277777  0.87349991  0.12840017  1
  C  C393  1  0.04715174  0.55624997  0.19609962  1
  C  C394  1  0.08834258  0.82909626  0.13109801  1
  H  H395  1  0.12715853  0.80016287  0.14517447  1
  H  H396  1  0.23136726  0.92086115  0.14326848  1
  C  C397  1  0.21332784  0.54354483  0.18129932  1
  C  C398  1  0.07761010  0.82930594  0.20464280  1
  C  C399  1  0.15759724  0.56169376  0.16168749  1
  N  N400  1  0.03813670  0.53640126  0.05914990  1
  C  C401  1  0.39243163  0.52117936  0.23835541  1
  C  C402  1  0.39039564  0.73097752  0.11561177  1
  H  H403  1  0.35408372  0.76645250  0.12781466  1
  C  C404  1  0.46643612  0.72272912  0.12015332  1
  C  C405  1  0.48681708  0.81988206  0.22469587  1
  C  C406  1  0.02659951  0.80466717  0.11671677  1
  C  C407  1  0.02204971  0.53211840  0.14983849  1
  H  H408  1  0.12685854  0.69134384  0.24730558  1
  C  C409  1  0.47474722  0.50008825  0.23877879  1
  N  N410  1  0.49469499  0.64609703  0.17582268  1
  H  H411  1  0.01010919  0.75303550  0.11848296  1
  H  H412  1  0.08537534  0.98179133  0.11662173  1
  H  H413  1  0.27688657  0.86389058  0.24846331  1
  H  H414  1  0.47585656  0.50700342  0.03598241  1
  C  C415  1  0.41313997  0.90949972  0.24300493  1
  H  H416  1  0.36506835  0.94097206  0.24946638  1
  N  N417  1  0.48040060  0.93959053  0.24794993  1
  C  C418  1  0.25118890  0.78598356  0.34144786  1
  C  C419  1  0.27698002  0.84682316  0.35057019  1
  H  H420  1  0.27733660  0.76620984  0.32343624  1
  C  C421  1  0.30475393  0.63318238  0.35095536  1
  C  C422  1  0.40756836  0.69524926  0.32722512  1
  H  H423  1  0.44686127  0.68813269  0.34457228  1
  C  C424  1  0.37183782  0.86602645  0.31328071  1
  C  C425  1  0.34552318  0.88134090  0.33858991  1
  C  C426  1  0.43583858  0.73251797  0.30608858  1
  C  C427  1  0.38119712  0.93225358  0.35321445  1
  H  H428  1  0.22903793  0.88792373  0.29551720  1
  C  C429  1  0.43081716  0.90462485  0.30276236  1
  H  H430  1  0.48756235  0.76129313  0.30593575  1
  C  C431  1  0.33562140  0.66482716  0.32620067  1
  N  N432  1  0.40179332  0.73710337  0.28285794  1
  H  H433  1  0.41610224  0.61020420  0.29063411  1
  C  C434  1  0.30611547  0.66419501  0.30011220  1
  C  C435  1  0.33971049  0.70338037  0.28036322  1
  H  H436  1  0.31502080  0.70933520  0.26032773  1
  C  C437  1  0.04064450  0.64343383  0.33772090  1
  C  C438  1  0.19209317  0.75300412  0.35494702  1
  H  H439  1  0.34784174  0.82407395  0.30127988  1
  H  H440  1  0.25708800  0.63353770  0.29436895  1
  H  H441  1  0.06312240  0.69149315  0.34422126  1
  C  C442  1  0.24638937  0.58704447  0.35114968  1
  H  H443  1  0.21406856  0.57723825  0.33246911  1
  H  H444  1  0.39343661  0.56714236  0.33912653  1
  H  H445  1  0.15622028  0.80773593  0.31443214  1
  N  N446  1  0.16931785  0.79759943  0.29449428  1
  C  C447  1  0.21367865  0.84352945  0.28303379  1
  N  N448  1  0.04347100  0.60288724  0.35837603  1
  H  H449  1  0.18066699  0.70198296  0.35058162  1
  C  C450  1  0.47848369  0.60859661  0.29008143  1
  C  C451  1  0.14095298  0.74577485  0.28304101  1
  H  H452  1  0.10474050  0.71886218  0.29725581  1
  C  C453  1  0.12112527  0.95773430  0.33529608  1
  C  C454  1  0.42461879  0.52081204  0.33949840  1
  C  C455  1  0.49459218  0.55386727  0.47355390  1
  H  H456  1  0.16808804  0.53063028  0.37850731  1
  N  N457  1  0.04730395  0.94758555  0.32824481  1
  C  C458  1  0.00103861  0.93227577  0.34879952  1
  C  C459  1  0.02412808  0.54188795  0.35463160  1
  C  C460  1  0.13655960  0.97485892  0.36138267  1
  H  H461  1  0.23444359  0.98475805  0.40543977  1
  H  H462  1  0.39379826  0.51456102  0.49665487  1
  H  H463  1  0.00964932  0.65867140  0.29629006  1
  C  C464  1  0.42342217  0.52439261  0.47668809  1
  N  N465  1  0.46691569  0.95104574  0.31634556  1
  C  C466  1  0.01732429  0.62460900  0.31322750  1
  H  H467  1  0.35460207  0.95028335  0.37158970  1
  C  C468  1  0.01202265  0.93901872  0.37571013  1
  H  H469  1  0.47358669  0.62247824  0.39263298  1
  H  H470  1  0.35491637  0.50157365  0.41891461  1
  H  H471  1  0.45680531  0.89912712  0.28240926  1
  N  N472  1  0.15357632  0.77738510  0.37587529  1
  C  C473  1  0.23777834  0.86783997  0.37364539  1
  H  H474  1  0.41068432  0.88653513  0.42983450  1
  H  H475  1  0.04616111  0.82529570  0.26415313  1
  C  C476  1  0.17665071  0.83670694  0.38452098  1
  H  H477  1  0.01429424  0.74242275  0.45114057  1
  C  C478  1  0.31330688  0.61577781  0.39883104  1
  C  C479  1  0.48419660  0.51002442  0.32253708  1
  C  C480  1  0.19664359  0.95475279  0.41717405  1
  H  H481  1  0.03370743  0.51771533  0.37310158  1
  H  H482  1  0.14769666  0.91361051  0.48905224  1
  N  N483  1  0.37435826  0.51262027  0.45771033  1
  C  C484  1  0.49719784  0.93714142  0.40698896  1
  H  H485  1  0.08465075  0.83406495  0.45811305  1
  Cu  Cu486  1  0.08093340  0.63563440  0.39113218  1
  C  C487  1  0.46908462  0.54605761  0.42662529  1
  C  C488  1  0.22444337  0.56058076  0.37571663  1
  C  C489  1  0.34092011  0.64646512  0.37593307  1
  H  H490  1  0.39118818  0.67770555  0.37699902  1
  N  N491  1  0.15716415  0.99523530  0.26408829  1
  C  C492  1  0.44041327  0.72273019  0.43377651  1
  N  N493  1  0.10963202  0.72264071  0.42940869  1
  Cu  Cu494  1  0.22085539  0.54509279  0.43156128  1
  Cu  Cu495  1  0.33952734  0.86728555  0.49733910  1
  C  C496  1  0.26224370  0.99196510  0.47664025  1
  C  C497  1  0.08685782  0.96218302  0.38308442  1
  C  C498  1  0.10861549  0.69661869  0.47558679  1
  H  H499  1  0.27092431  0.65254092  0.44863321  1
  H  H500  1  0.19305099  0.99244549  0.36662160  1
  H  H501  1  0.01098481  0.92357504  0.43259291  1
  H  H502  1  0.37937172  0.71769574  0.47197170  1
  C  C503  1  0.23289675  0.83135540  0.25637488  1
  H  H504  1  0.26188864  0.91214306  0.38390178  1
  C  C505  1  0.18067160  0.66648237  0.47640873  1
  C  C506  1  0.07504048  0.72316381  0.45263859  1
  H  H507  1  0.32187827  0.59355356  0.48697427  1
  N  N508  1  0.18788200  0.86814707  0.44962969  1
  H  H509  1  0.36696940  0.80153376  0.37916651  1
  C  C510  1  0.22974521  0.91249133  0.43550725  1
  C  C511  1  0.42738963  0.93190085  0.42003061  1
  C  C512  1  0.31705011  0.79551168  0.42067184  1
  C  C513  1  0.44101303  0.96402764  0.34071616  1
  H  H514  1  0.29025364  0.90352022  0.44115499  1
  H  H515  1  0.33917937  0.62254002  0.41882790  1
  H  H516  1  0.07263247  0.69371214  0.49298686  1
  Cu  Cu517  1  0.08418474  0.57687835  0.43620923  1
  C  C518  1  0.11734817  0.95273173  0.41045788  1
  C  C519  1  0.17509782  0.68720536  0.42798576  1
  C  C520  1  0.21482033  0.66890212  0.45062495  1
  H  H521  1  0.32377652  0.99485958  0.43169914  1
  H  H522  1  0.48902212  0.54330712  0.40605805  1
  C  C523  1  0.43565369  0.74687572  0.40702932  1
  H  H524  1  0.26226214  0.81630709  0.41665132  1
  C  C525  1  0.37297737  0.78505701  0.40022574  1
  N  N526  1  0.25966029  0.57209423  0.39833709  1
  N  N527  1  0.32395453  0.95929259  0.48877901  1
  C  C528  1  0.07259602  0.91983306  0.43067088  1
  H  H529  1  0.13790033  0.85244067  0.40079201  1
  Cu  Cu530  1  0.24516207  0.79733175  0.46921049  1
  H  H531  1  0.19867547  0.69016659  0.40817376  1
  N  N532  1  0.32352439  0.77666396  0.44535212  1
  C  C533  1  0.15702002  0.73068503  0.25674030  1
  H  H534  1  0.21207353  0.95978962  0.47305153  1
  C  C535  1  0.11098298  0.87288659  0.44545679  1
  Cu  Cu536  1  0.05774904  0.76108636  0.39702384  1
  C  C537  1  0.38519863  0.74221270  0.45166771  1
  H  H538  1  0.00044645  0.94300111  0.48866747  1
  C  C539  1  0.49279795  0.72535288  0.38420825  1
  C  C540  1  0.37585930  0.98585951  0.41957323  1
  C  C541  1  0.39826496  0.51947967  0.43303847  1
  H  H542  1  0.49716394  0.69133745  0.26000103  1
  H  H543  1  0.15856738  0.96435816  0.31753636  1
  H  H544  1  0.48192678  0.68548906  0.43759972  1
  C  C545  1  0.22930514  0.73089464  0.59380664  1
  C  C546  1  0.26856169  0.77130823  0.57577750  1
  C  C547  1  0.20097351  0.86121612  0.58805048  1
  C  C548  1  0.15423693  0.82590398  0.60532373  1
  C  C549  1  0.16612235  0.75698596  0.60684889  1
  N  N550  1  0.25523026  0.83418314  0.57330023  1
  Cu  Cu551  1  0.31013766  0.87913479  0.54792546  1
  H  H552  1  0.19521637  0.91590884  0.58525813  1
  H  H553  1  0.31781266  0.75600634  0.56325893  1
  H  H554  1  0.30540890  0.94522509  0.60269976  1
  H  H555  1  0.18366828  0.62649927  0.57018505  1
  H  H556  1  0.24644294  0.68043375  0.59495939  1
  H  H557  1  0.12596278  0.80555889  0.55562708  1
  C  C558  1  0.09190342  0.83835496  0.54222424  1
  C  C559  1  0.42282548  0.80930104  0.53304542  1
  C  C560  1  0.20325173  0.61862912  0.54925246  1
  N  N561  1  0.36913570  0.78241814  0.51805517  1
  H  H562  1  0.39916980  0.87409593  0.59223216  1
  C  C563  1  0.36368054  0.71660599  0.51819988  1
  C  C564  1  0.40409038  0.67692623  0.53588450  1
  H  H565  1  0.40228637  0.62314253  0.53497664  1
  C  C566  1  0.41443665  0.84198399  0.60830394  1
  N  N567  1  0.26012098  0.57496471  0.55029949  1
  H  H568  1  0.12371134  0.67539372  0.52845902  1
  C  C569  1  0.17689606  0.64639574  0.52558330  1
  H  H570  1  0.11312157  0.84917550  0.61877966  1
  N  N571  1  0.12920810  0.85077611  0.52000018  1
  C  C572  1  0.10900616  0.71751198  0.62298281  1
  H  H573  1  0.31055264  0.79366204  0.61503535  1
  C  C574  1  0.44842419  0.70818232  0.55612771  1
  H  H575  1  0.32637598  0.59157164  0.58390128  1
  H  H576  1  0.42807103  0.86305993  0.53045255  1
  C  C577  1  0.36921164  0.79750286  0.62220046  1
  C  C578  1  0.32533294  0.56717747  0.60315576  1
  H  H579  1  0.34144741  0.53379486  0.53347087  1
  C  C580  1  0.29670659  0.56745322  0.52699253  1
  N  N581  1  0.30833723  0.96642290  0.56431105  1
  C  C582  1  0.45956790  0.77702246  0.55440560  1
  Cu  Cu583  1  0.22290758  0.81068853  0.51827231  1
  H  H584  1  0.11915640  0.54088491  0.55277278  1
  H  H585  1  0.05679116  0.57203905  0.65519481  1
  N  N586  1  0.26893119  0.52217784  0.60491114  1
  C  C587  1  0.32158182  0.98531177  0.58983611  1
  H  H588  1  0.42500253  0.97963385  0.50803375  1
  C  C589  1  0.03781342  0.93158048  0.61678553  1
  C  C590  1  0.04906923  0.53884386  0.70256602  1
  H  H591  1  0.02779016  0.58971063  0.70174288  1
  C  C592  1  0.10454757  0.89842984  0.50462578  1
  C  C593  1  0.12260844  0.65621149  0.63627079  1
  H  H594  1  0.45595713  0.92076530  0.64199711  1
  C  C595  1  0.01653855  0.85950229  0.54703555  1
  H  H596  1  0.03397684  0.98750116  0.57947104  1
  C  C597  1  0.03359458  0.73773855  0.62010320  1
  H  H598  1  0.12917625  0.55497626  0.50130326  1
  H  H599  1  0.05830891  0.66571680  0.58606204  1
  H  H600  1  0.00826755  0.79829087  0.51028096  1
  C  C601  1  0.37625248  0.57931507  0.62380125  1
  H  H602  1  0.42202555  0.61473461  0.62201430  1
  C  C603  1  0.49186656  0.66625815  0.57630725  1
  C  C604  1  0.21704177  0.70858362  0.67971414  1
  H  H605  1  0.18315787  0.64315953  0.64025254  1
  C  C606  1  0.06101295  0.62037261  0.64564531  1
  C  C607  1  0.12368512  0.51369066  0.69707072  1
  C  C608  1  0.44348026  0.54461615  0.71882881  1
  C  C609  1  0.26680008  0.73730308  0.66144419  1
  H  H610  1  0.13267576  0.89342617  0.66144346  1
  C  C611  1  0.47964178  0.77308633  0.65009251  1
  H  H612  1  0.39404459  0.99922499  0.67470076  1
  C  C613  1  0.00043398  0.95686476  0.59345916  1
  H  H614  1  0.32028679  0.70148706  0.50379892  1
  H  H615  1  0.24694312  0.76805836  0.64494993  1
  H  H616  1  0.44603725  0.93545284  0.57699484  1
  C  C617  1  0.34561052  0.72663057  0.66212853  1
  C  C618  1  0.21373054  0.97311551  0.65863040  1
  C  C619  1  0.02793741  0.91815510  0.50571071  1
  C  C620  1  0.36880434  0.54566720  0.64791351  1
  C  C621  1  0.36565541  0.67830564  0.68089886  1
  H  H622  1  0.25241587  0.96060118  0.67443010  1
  C  C623  1  0.40050981  0.76509980  0.64470089  1
  N  N624  1  0.23897464  0.66497318  0.69786329  1
  C  C625  1  0.42268746  0.55953467  0.67100369  1
  C  C626  1  0.31280702  0.65005170  0.69927403  1
  H  H627  1  0.15771373  0.71605817  0.68199033  1
  C  C628  1  0.10899779  0.96060226  0.62764810  1
  H  H629  1  0.33150497  0.61660269  0.71517997  1
  H  H630  1  0.08034223  0.52648860  0.59154533  1
  H  H631  1  0.42778857  0.66424831  0.68262235  1
  C  C632  1  0.14854306  0.93957170  0.65106610  1
  C  C633  1  0.47164790  0.97257892  0.64229278  1
  N  N634  1  0.48894415  0.85156031  0.61421937  1
  H  H635  1  0.17302290  0.54618455  0.69346495  1
  N  N636  1  0.02476848  0.58642564  0.56841232  1
  H  H637  1  0.42618330  0.53105340  0.73934476  1
  H  H638  1  0.33501619  0.53009272  0.69878280  1
  C  C639  1  0.02764700  0.65191275  0.56797864  1
  H  H640  1  0.02269414  0.78103887  0.60769174  1
  H  H641  1  0.00056930  0.74438250  0.54746603  1
  C  C642  1  0.39432649  0.54266918  0.69684994  1
  C  C643  1  0.30829712  0.50132479  0.64976548  1
  H  H644  1  0.02186206  0.85753551  0.64750446  1
  H  H645  1  0.48818662  0.57392496  0.55725550  1
  C  C646  1  0.48439441  0.96013239  0.56239624  1
  H  H647  1  0.49661185  0.80414493  0.56907667  1
  H  H648  1  0.48501849  0.74978437  0.60358060  1
  C  C649  1  0.12184591  0.50728595  0.51224582  1
  C  C650  1  0.21510791  0.63708409  0.50103478  1
  C  C651  1  0.28264826  0.59929744  0.50320208  1
  H  H652  1  0.64132130  0.10196292  0.06852193  1
  C  C653  1  0.60438357  0.08612424  0.08485138  1
  H  H654  1  0.55897958  0.33345714  0.06547135  1
  C  C655  1  0.90442654  0.11673309  0.09300488  1
  H  H656  1  0.75876971  0.22599790  0.08867939  1
  H  H657  1  0.97048778  0.41845688  0.10175058  1
  N  N658  1  0.53715267  0.06283138  0.07747179  1
  H  H659  1  0.97915162  0.32309773  0.06241442  1
  H  H660  1  0.85996837  0.37068505  0.10037630  1
  H  H661  1  0.95748912  0.27661606  0.10932189  1
  C  C662  1  0.80336739  0.15182712  0.06246099  1
  N  N663  1  0.83054177  0.48870086  0.24951284  1
  C  C664  1  0.85337010  0.21312835  0.17849112  1
  C  C665  1  0.53284935  0.41983023  0.18092819  1
  C  C666  1  0.62586032  0.08795728  0.11191440  1
  H  H667  1  0.60087272  0.24452376  0.08930804  1
  C  C668  1  0.86903947  0.05530619  0.09401777  1
  C  C669  1  0.75186067  0.23129775  0.11038290  1
  N  N670  1  0.96835890  0.18513494  0.21634982  1
  H  H671  1  0.67601487  0.11663017  0.11722963  1
  C  C672  1  0.50608479  0.49130936  0.10146041  1
  H  H673  1  0.50425408  0.15503931  0.10131481  1
  C  C674  1  0.87341428  0.16443486  0.07465690  1
  H  H675  1  0.63054902  0.48710110  0.11616012  1
  C  C676  1  0.81304951  0.22729470  0.12772265  1
  N  N677  1  0.63569892  0.46761463  0.23516295  1
  C  C678  1  0.80235965  0.04866756  0.07863163  1
  C  C679  1  0.67891077  0.09461470  0.16379375  1
  H  H680  1  0.89794624  0.19712022  0.24580509  1
  C  C681  1  0.86266162  0.03299357  0.16177612  1
  H  H682  1  0.76614977  0.34643100  0.13822693  1
  C  C683  1  0.82686080  0.40956242  0.10917254  1
  H  H684  1  0.71157389  0.24858063  0.18350920  1
  C  C685  1  0.89790044  0.20262898  0.22422136  1
  H  H686  1  0.77791804  0.01159053  0.20811239  1
  H  H687  1  0.78018995  0.18520858  0.04769078  1
  H  H688  1  0.81897935  0.06890378  0.15927641  1
  N  N689  1  0.67949380  0.24614864  0.11743876  1
  H  H690  1  0.58267541  0.27274699  0.24475997  1
  N  N691  1  0.74431223  0.43753908  0.14633248  1
  H  H692  1  0.55142459  0.44403517  0.20013502  1
  C  C693  1  0.72711978  0.24968716  0.16301249  1
  C  C694  1  0.78046052  0.39531926  0.13107582  1
  C  C695  1  0.95412171  0.32428632  0.14694260  1
  C  C696  1  0.58389940  0.05601580  0.13145507  1
  H  H697  1  0.71926241  0.02696445  0.13335197  1
  C  C698  1  0.92198392  0.05059427  0.17943237  1
  C  C699  1  0.79379666  0.31930721  0.24668000  1
  C  C700  1  0.83987059  0.22069924  0.20675360  1
  H  H701  1  0.65350600  0.31661864  0.20429152  1
  H  H702  1  0.59079015  0.14989402  0.21040852  1
  C  C703  1  0.64114846  0.28781139  0.24620927  1
  C  C704  1  0.58536349  0.49964801  0.09987501  1
  Cu  Cu705  1  0.82377496  0.49597657  0.19447577  1
  H  H706  1  0.90095871  0.30014175  0.15514789  1
  N  N707  1  0.58899510  0.41216407  0.16319676  1
  C  C708  1  0.68090878  0.31049689  0.22377449  1
  H  H709  1  0.89203494  0.07765834  0.22833188  1
  C  C710  1  0.66932374  0.24852145  0.14376907  1
  C  C711  1  0.92945294  0.19742426  0.17178737  1
  H  H712  1  0.85376820  0.33193774  0.24371242  1
  H  H713  1  0.62560422  0.37294847  0.12759065  1
  C  C714  1  0.70121506  0.10177831  0.19006487  1
  H  H715  1  0.87263339  0.21929572  0.11957397  1
  C  C716  1  0.53557700  0.16892491  0.20361454  1
  C  C717  1  0.61088682  0.05742712  0.15967132  1
  Cu  Cu718  1  0.74423097  0.44965774  0.22897734  1
  H  H719  1  0.51923601  0.29452564  0.16481010  1
  N  N720  1  0.52011820  0.29904674  0.07268585  1
  C  C721  1  0.57400706  0.38088944  0.14052349  1
  Cu  Cu722  1  0.69058693  0.43218473  0.17899374  1
  H  H723  1  0.75474137  0.12731410  0.19646518  1
  H  H724  1  0.71003810  0.11841846  0.14801307  1
  H  H725  1  0.94470966  0.19821779  0.15131373  1
  N  N726  1  0.98656334  0.36957547  0.16168348  1
  C  C727  1  0.80299252  0.23054589  0.15606356  1
  C  C728  1  0.87445473  0.02639747  0.23230481  1
  H  H729  1  0.60636637  0.24750280  0.14848841  1
  Cu  Cu730  1  0.80571185  0.36740284  0.19115179  1
  H  H731  1  0.78113418  0.23280032  0.21454198  1
  N  N732  1  0.66770427  0.07603584  0.21141603  1
  N  N733  1  0.55212884  0.22242407  0.19023568  1
  H  H734  1  0.92115637  0.09783043  0.19094047  1
  N  N735  1  0.75496934  0.33172929  0.22313425  1
  Cu  Cu736  1  0.94443463  0.40022998  0.19396168  1
  H  H737  1  0.88747973  0.01560172  0.10635085  1
  H  H738  1  0.75852690  0.01122746  0.07876769  1
  C  C739  1  0.54030031  0.24556384  0.08626131  1
  N  N740  1  0.76885284  0.09486124  0.06392063  1
  H  H741  1  0.99268264  0.44234920  0.24480260  1
  H  H742  1  0.97587965  0.04670444  0.13334649  1
  C  C743  1  0.60512619  0.04217993  0.20700015  1
  C  C744  1  0.57388126  0.02773784  0.18184256  1
  C  C745  1  0.97175301  0.45997598  0.08797428  1
  C  C746  1  0.98697334  0.19019553  0.18979681  1
  C  C747  1  0.98631930  0.30875118  0.12284491  1
  H  H748  1  0.90047842  0.21141418  0.07031836  1
  N  N749  1  0.98912963  0.02074024  0.18391409  1
  C  C750  1  0.51243216  0.03006279  0.12314686  1
  H  H751  1  0.58670427  0.02737541  0.22715051  1
  C  C752  1  0.97685650  0.13380680  0.10711405  1
  C  C753  1  0.90372651  0.49518678  0.08494882  1
  C  C754  1  0.83827933  0.47757470  0.10357833  1
  C  C755  1  0.67509553  0.28701930  0.27212742  1
  C  C756  1  0.63944036  0.27598070  0.29846825  1
  C  C757  1  0.75488600  0.29659768  0.26986568  1
  H  H758  1  0.79300283  0.29282744  0.28757876  1
  C  C759  1  0.66735773  0.25097085  0.32415856  1
  C  C760  1  0.56232046  0.29443883  0.29829608  1
  H  H761  1  0.72849683  0.23681700  0.32776243  1
  H  H762  1  0.80040172  0.35980943  0.31743282  1
  N  N763  1  0.69005914  0.43764767  0.31723884  1
  N  N764  1  0.90230586  0.32941014  0.30514735  1
  C  C765  1  0.61437880  0.24372252  0.34388345  1
  C  C766  1  0.86051786  0.35470879  0.32530372  1
  H  H767  1  0.83700213  0.40160702  0.26969079  1
  C  C768  1  0.87660729  0.07646846  0.31609853  1
  N  N769  1  0.84297998  0.12689823  0.30449186  1
  C  C770  1  0.86084811  0.45100829  0.26844214  1
  C  C771  1  0.69131415  0.07438352  0.27779760  1
  C  C772  1  0.85567972  0.18531813  0.31520492  1
  H  H773  1  0.82493217  0.22328908  0.30421196  1
  N  N774  1  0.60846195  0.11689449  0.36783755  1
  C  C775  1  0.89801404  0.20037632  0.33808327  1
  H  H776  1  0.61962131  0.10411227  0.33042382  1
  C  C777  1  0.88867768  0.37771184  0.34959142  1
  C  C778  1  0.92748223  0.08243581  0.33856722  1
  C  C779  1  0.64931924  0.08772326  0.34759370  1
  C  C780  1  0.93447315  0.14501167  0.34952820  1
  C  C781  1  0.71514992  0.05250950  0.35145769  1
  H  H782  1  0.75176620  0.44375757  0.28362929  1
  C  C783  1  0.65873400  0.13335376  0.26942918  1
  H  H784  1  0.94983758  0.43270146  0.29809808  1
  C  C785  1  0.76658642  0.00840123  0.47303912  1
  C  C786  1  0.97203577  0.31339093  0.31269470  1
  C  C787  1  0.92286412  0.46800608  0.28450920  1
  C  C788  1  0.66969368  0.46179849  0.34070759  1
  H  H789  1  0.55987273  0.42822650  0.31143288  1
  C  C790  1  0.96429004  0.36635324  0.35723799  1
  N  N791  1  0.58426472  0.14170232  0.26765400  1
  C  C792  1  0.54178043  0.09601893  0.27781862  1
  N  N793  1  0.53727347  0.25809262  0.34286571  1
  H  H794  1  0.75001767  0.04161325  0.33400926  1
  H  H795  1  0.62793926  0.22723770  0.36424879  1
  C  C796  1  0.56768761  0.03801724  0.28874442  1
  H  H797  1  0.98050932  0.46391118  0.32862320  1
  H  H798  1  0.90447675  0.24761013  0.34485649  1
  H  H799  1  0.71777886  0.15949587  0.44399437  1
  H  H800  1  0.62889792  0.42607776  0.35051808  1
  C  C801  1  0.74527853  0.46712718  0.30362801  1
  H  H802  1  0.85052757  0.19508737  0.49311569  1
  H  H803  1  0.86308809  0.03305119  0.30391918  1
  C  C804  1  0.51563596  0.44663975  0.32603443  1
  H  H805  1  0.77515905  0.15884149  0.37380455  1
  H  H806  1  0.75015123  0.07286919  0.27957674  1
  H  H807  1  0.53860649  0.31878527  0.28124681  1
  H  H808  1  0.95359690  0.04151518  0.34857777  1
  Cu  Cu809  1  0.50634182  0.31836312  0.41300230  1
  C  C810  1  0.50181408  0.18185855  0.43133181  1
  C  C811  1  0.54762426  0.21355927  0.49437607  1
  C  C812  1  0.63536121  0.10240266  0.39114944  1
  C  C813  1  0.50807952  0.44690584  0.25405802  1
  C  C814  1  0.65846096  0.37094357  0.39257946  1
  H  H815  1  0.85046414  0.40890123  0.36253552  1
  H  H816  1  0.69602900  0.25163215  0.48385671  1
  C  C817  1  0.73847023  0.03271891  0.37753247  1
  H  H818  1  0.59041169  0.45819020  0.48651967  1
  H  H819  1  0.98125787  0.14483730  0.30240308  1
  N  N820  1  0.76030254  0.23967276  0.39617726  1
  C  C821  1  0.83417525  0.15193556  0.41217470  1
  H  H822  1  0.76865773  0.40706184  0.37469989  1
  H  H823  1  0.82756003  0.01221152  0.47989086  1
  C  C824  1  0.59541649  0.42548341  0.42599396  1
  N  N825  1  0.60199885  0.37042867  0.41106645  1
  H  H826  1  0.65619512  0.26755801  0.42358718  1
  H  H827  1  0.65890802  0.32757286  0.37991907  1
  C  C828  1  0.51351869  0.28226428  0.32016685  1
  C  C829  1  0.98145777  0.47421121  0.41764582  1
  C  C830  1  0.81938823  0.24618552  0.43997565  1
  H  H831  1  0.56097901  0.00810165  0.38338422  1
  C  C832  1  0.65479827  0.16784817  0.44124875  1
  H  H833  1  0.83604466  0.27223797  0.45801219  1
  C  C834  1  0.64691481  0.05423339  0.45682254  1
  H  H835  1  0.85070800  0.10031215  0.41078807  1
  H  H836  1  0.88889613  0.41828815  0.40034476  1
  C  C837  1  0.92929220  0.36654291  0.46585135  1
  C  C838  1  0.94835946  0.43100467  0.40001192  1
  H  H839  1  0.56084833  0.11126472  0.48546444  1
  H  H840  1  0.71880119  0.05869921  0.41881106  1
  C  C841  1  0.89668045  0.14613209  0.45755471  1
  C  C842  1  0.71748022  0.46612063  0.40909294  1
  C  C843  1  0.77862912  0.27231453  0.41827407  1
  C  C844  1  0.99820790  0.40426538  0.38028836  1
  C  C845  1  0.87421191  0.36663493  0.44511941  1
  H  H846  1  0.56267961  0.23300618  0.47429564  1
  C  C847  1  0.90497449  0.39984948  0.48936650  1
  H  H848  1  0.96419576  0.08830277  0.42879959  1
  C  C849  1  0.71990137  0.41366037  0.39014938  1
  C  C850  1  0.70101740  0.06693941  0.39829433  1
  H  H851  1  0.53979688  0.42692784  0.43628915  1
  H  H852  1  0.59699006  0.12788723  0.40583908  1
  C  C853  1  0.72196072  0.06220893  0.46735589  1
  C  C854  1  0.83512802  0.43186516  0.48920922  1
  C  C855  1  0.98294279  0.05693732  0.46933605  1
  H  H856  1  0.75722041  0.38729357  0.43384032  1
  C  C857  1  0.79361420  0.18252087  0.39202700  1
  H  H858  1  0.50821694  0.35731599  0.35180376  1
  N  N859  1  0.78342066  0.42810202  0.47022897  1
  C  C860  1  0.65142006  0.47356544  0.42503641  1
  H  H861  1  0.88806841  0.34348132  0.42576770  1
  C  C862  1  0.62440104  0.22304150  0.42910940  1
  H  H863  1  0.75653908  0.32100805  0.41711696  1
  H  H864  1  0.74098252  0.11166353  0.47069805  1
  H  H865  1  0.94606584  0.23624192  0.39574764  1
  C  C866  1  0.85092108  0.18306823  0.43688671  1
  C  C867  1  0.88820130  0.15745204  0.48462845  1
  C  C868  1  0.52922153  0.12218015  0.44158646  1
  C  C869  1  0.94633222  0.09353576  0.45021641  1
  C  C870  1  0.80155199  0.39236200  0.44973128  1
  H  H871  1  0.79852987  0.31980456  0.48985976  1
  C  C872  1  0.98721642  0.19602853  0.39454098  1
  C  C873  1  0.60719080  0.11375787  0.44701841  1
  N  N874  1  0.54979828  0.23203366  0.42443819  1
  H  H875  1  0.98593490  0.28196916  0.49961387  1
  H  H876  1  0.52610751  0.00493833  0.29732692  1
  C  C877  1  0.64775930  0.02246792  0.28858437  1
  N  N878  1  0.98062046  0.07209823  0.49486907  1
  H  H879  1  0.61419571  0.38860516  0.25856549  1
  C  C880  1  0.98438278  0.14587228  0.37498460  1
  H  H881  1  0.68784044  0.17566532  0.25928219  1
  C  C882  1  0.58381093  0.43107827  0.25005052  1
  C  C883  1  0.75314381  0.13539538  0.56210112  1
  C  C884  1  0.76784267  0.18484260  0.54108767  1
  N  N885  1  0.81052948  0.34139634  0.60538383  1
  H  H886  1  0.63050574  0.11063192  0.55251762  1
  C  C887  1  0.67903385  0.10124985  0.56390040  1
  C  C888  1  0.76385482  0.31355985  0.58727322  1
  H  H889  1  0.76002114  0.25797686  0.59107283  1
  C  C890  1  0.73222164  0.35123668  0.56729515  1
  H  H891  1  0.69391878  0.32615650  0.55219285  1
  C  C892  1  0.82452886  0.40483710  0.60503495  1
  C  C893  1  0.74129045  0.41986409  0.56635793  1
  C  C894  1  0.79068823  0.44554285  0.58603590  1
  C  C895  1  0.69864837  0.45561815  0.54465676  1
  N  N896  1  0.62692617  0.18430634  0.61306871  1
  H  H897  1  0.87581176  0.22038293  0.55993198  1
  C  C898  1  0.65935061  0.43158516  0.52278318  1
  H  H899  1  0.56792304  0.38040876  0.55594211  1
  H  H900  1  0.65287820  0.40360896  0.59796167  1
  C  C901  1  0.59013481  0.41242152  0.59723729  1
  H  H902  1  0.69999690  0.12358618  0.62897024  1
  C  C903  1  0.54186046  0.40211263  0.57540892  1
  N  N904  1  0.56706894  0.43180893  0.62101268  1
  C  C905  1  0.93376300  0.16524931  0.61468193  1
  H  H906  1  0.57132744  0.06142465  0.60364443  1
  H  H907  1  0.85929937  0.13873660  0.58233011  1
  C  C908  1  0.80388027  0.11460862  0.58075104  1
  C  C909  1  0.77946430  0.06111679  0.59857330  1
  C  C910  1  0.68065615  0.05787342  0.58378062  1
  C  C911  1  0.96752218  0.19872099  0.59033549  1
  H  H912  1  0.93816357  0.29501492  0.60195814  1
  C  C913  1  0.83386129  0.22699289  0.54412061  1
  H  H914  1  0.81257151  0.04591930  0.61613882  1
  N  N915  1  0.71272978  0.02686520  0.60183532  1
  C  C916  1  0.96632465  0.26730918  0.58619693  1
  H  H917  1  0.66401226  0.37853924  0.51655930  1
  C  C918  1  0.52843740  0.05299694  0.53472383  1
  C  C919  1  0.52834612  0.12748888  0.52741766  1
  C  C920  1  0.95307410  0.10079301  0.62386764  1
  C  C921  1  0.83893767  0.27725846  0.52641491  1
  C  C922  1  0.58631380  0.24054745  0.61117858  1
  C  C923  1  0.53046250  0.05425770  0.62015141  1
  C  C924  1  0.99519761  0.29424852  0.56353206  1
  C  C925  1  0.71530835  0.19982359  0.52104921  1
  C  C926  1  0.66993463  0.17195943  0.63375458  1
  H  H927  1  0.66663132  0.16617282  0.51709624  1
  H  H928  1  0.81229730  0.46399734  0.50462133  1
  H  H929  1  0.85969168  0.41944736  0.62248388  1
  H  H930  1  0.51479787  0.42271651  0.52788546  1
  H  H931  1  0.94176197  0.12192245  0.52329241  1
  H  H932  1  0.88366394  0.31696930  0.52914249  1
  H  H933  1  0.76941252  0.03144451  0.54722289  1
  H  H934  1  0.51104545  0.28421335  0.55028744  1
  H  H935  1  0.94923803  0.41258017  0.50546631  1
  C  C936  1  0.99723512  0.16071024  0.56961164  1
  H  H937  1  0.96181640  0.35052767  0.67384593  1
  N  N938  1  0.55109290  0.37929513  0.72808907  1
  H  H939  1  0.78486611  0.01915529  0.67413882  1
  C  C940  1  0.92169353  0.26760958  0.69613270  1
  H  H941  1  0.92867860  0.46683245  0.66763077  1
  H  H942  1  0.93610716  0.03107532  0.65835441  1
  C  C943  1  0.92687811  0.07903554  0.64813802  1
  C  C944  1  0.50274016  0.10156868  0.63737026  1
  H  H945  1  0.99886026  0.34524099  0.55691033  1
  C  C946  1  0.91466641  0.32832740  0.68354552  1
  H  H947  1  0.81636992  0.19090795  0.66892436  1
  H  H948  1  0.64392473  0.23763544  0.71300167  1
  H  H949  1  0.70390575  0.19868123  0.67512116  1
  H  H950  1  0.99166382  0.10821196  0.56991365  1
  C  C951  1  0.61247032  0.28365462  0.70982305  1
  H  H952  1  0.79852537  0.49913423  0.58695344  1
  C  C953  1  0.54999623  0.35870190  0.68115650  1
  C  C954  1  0.84022686  0.35452773  0.68347700  1
  C  C955  1  0.81914366  0.42015181  0.67134569  1
  H  H956  1  0.90558912  0.01313047  0.52564933  1
  H  H957  1  0.85334105  0.24580147  0.62405606  1
  C  C958  1  0.87903415  0.19738788  0.62920574  1
  C  C959  1  0.56896040  0.26956877  0.63510786  1
  N  N960  1  0.87610898  0.11172134  0.66157681  1
  H  H961  1  0.69294528  0.39900983  0.67396910  1
  N  N962  1  0.87171600  0.23367605  0.71044593  1
  C  C963  1  0.60955054  0.25802613  0.65915853  1
  C  C964  1  0.56478022  0.00525836  0.51942507  1
  H  H965  1  0.98344949  0.06715634  0.61070549  1
  H  H966  1  0.52211356  0.30590254  0.63266332  1
  C  C967  1  0.78497897  0.31733590  0.69734720  1
  C  C968  1  0.72246784  0.49234174  0.65622862  1
  C  C969  1  0.80206086  0.25461305  0.70778872  1
  C  C970  1  0.86790176  0.47067270  0.66209647  1
  C  C971  1  0.85201140  0.16988331  0.65311849  1
  H  H972  1  0.53145849  0.37150399  0.66096824  1
  C  C973  1  0.93443835  0.12024179  0.50186038  1
  H  H974  1  0.94805854  0.41917134  0.71833425  1
  C  C975  1  0.73916686  0.43219471  0.66818740  1
  H  H976  1  0.55916000  0.24932222  0.59110860  1
  C  C977  1  0.59155373  0.29966237  0.68346356  1
  C  C978  1  0.62291989  0.47486783  0.50489364  1
  N  N979  1  0.67728874  0.00300508  0.67157333  1
  C  C980  1  0.58827037  0.32364943  0.73100491  1
  H  H981  1  0.75943067  0.22205506  0.71796251  1
  C  C982  1  0.53141197  0.39586205  0.70353520  1
  N  N983  1  0.53230293  0.26006462  0.51294493  1
  H  H984  1  0.52340822  0.18004710  0.68027768  1
  H  H985  1  0.72802677  0.33837744  0.70144962  1
  C  C986  1  0.66314951  0.20576721  0.65824599  1
  H  H987  1  0.97818806  0.24161425  0.69971845  1
  H  H988  1  0.51717385  0.15384317  0.63460529  1
  C  C989  1  0.51772555  0.24074992  0.53771155  1
  C  C990  1  0.50893876  0.17424250  0.54583502  1
  N  N991  1  0.79261665  0.28405127  0.50488951  1
  H  H992  1  0.60403038  0.02228182  0.50275635  1
  C  C993  1  0.54751402  0.14726591  0.50094593  1
  C  C994  1  0.73350098  0.24355123  0.50137703  1
  H  H995  1  0.59828058  0.31541686  0.75197693  1
  C  C996  1  0.90220999  0.55160098  0.06801985  1
  H  H997  1  0.84849394  0.57399993  0.06225065  1
  N  N998  1  0.81122383  0.76100233  0.04944080  1
  C  C999  1  0.84322830  0.72529351  0.06785413  1
  H  H1000  1  0.81084547  0.84204316  0.02686422  1
  C  C1001  1  0.83788490  0.82010856  0.04370009  1
  H  H1002  1  0.81084385  0.67774848  0.07016154  1
  C  C1003  1  0.90130654  0.74762208  0.08464541  1
  C  C1004  1  0.89596682  0.84969423  0.05955514  1
  C  C1005  1  0.92639024  0.81200159  0.07921649  1
  H  H1006  1  0.91431058  0.90129017  0.05581190  1
  H  H1007  1  0.75045482  0.81588248  0.09006674  1
  C  C1008  1  0.74765855  0.86189114  0.10194952  1
  N  N1009  1  0.68398715  0.89669513  0.09641286  1
  C  C1010  1  0.50473534  0.88185510  0.16904805  1
  N  N1011  1  0.51283943  0.68190113  0.10642657  1
  H  H1012  1  0.98720391  0.94650561  0.08258916  1
  C  C1013  1  0.81567161  0.99024196  0.22306331  1
  H  H1014  1  0.73063502  0.72770699  0.12505928  1
  N  N1015  1  0.76970764  0.68898765  0.12305469  1
  C  C1016  1  0.72892230  0.97818093  0.12570152  1
  C  C1017  1  0.96311158  0.67828269  0.15029608  1
  C  C1018  1  0.74989370  0.50050803  0.13973287  1
  C  C1019  1  0.75487441  0.68935351  0.24448434  1
  C  C1020  1  0.90385002  0.65038985  0.13594108  1
  H  H1021  1  0.90267595  0.59887750  0.12774003  1
  H  H1022  1  0.55645757  0.86479266  0.18031192  1
  C  C1023  1  0.93467157  0.73626637  0.16382325  1
  H  H1024  1  0.51748165  0.58688392  0.21776306  1
  C  C1025  1  0.86204659  0.97297660  0.14687726  1
  H  H1026  1  0.65092872  0.54654274  0.21155118  1
  H  H1027  1  0.79581736  0.79887428  0.23198774  1
  C  C1028  1  0.71776918  0.64984861  0.22614661  1
  H  H1029  1  0.74239940  0.65327183  0.11292100  1
  H  H1030  1  0.85657020  0.85071715  0.12446439  1
  H  H1031  1  0.61245365  0.97119266  0.10659483  1
  C  C1032  1  0.67063612  0.94968353  0.11069899  1
  C  C1033  1  0.97489385  0.77573239  0.18392597  1
  C  C1034  1  0.80485181  0.92362720  0.22869905  1
  H  H1035  1  0.65744309  0.63265208  0.22630387  1
  H  H1036  1  0.67172226  0.87497370  0.14862990  1
  C  C1037  1  0.82158261  0.64827431  0.19745072  1
  H  H1038  1  0.83905470  0.62734653  0.17885111  1
  C  C1039  1  0.79673072  0.94372469  0.13117440  1
  H  H1040  1  0.87520552  0.84034574  0.18674292  1
  H  H1041  1  0.79514260  0.57550944  0.11388590  1
  C  C1042  1  0.79331613  0.52225025  0.11897522  1
  H  H1043  1  0.71505061  0.72347506  0.19627983  1
  C  C1044  1  0.75778007  0.81668281  0.21513655  1
  C  C1045  1  0.83673190  0.69303723  0.13599779  1
  C  C1046  1  0.75582359  0.88542919  0.21030377  1
  C  C1047  1  0.60631980  0.52158502  0.22414900  1
  N  N1048  1  0.69185307  0.79973025  0.17321556  1
  C  C1049  1  0.80482402  0.88049731  0.11940983  1
  H  H1050  1  0.52676475  0.60967480  0.08106958  1
  C  C1051  1  0.94690356  0.51887035  0.15797696  1
  H  H1052  1  0.96894041  0.75122900  0.22873137  1
  H  H1053  1  0.60678573  0.65099781  0.17631814  1
  C  C1054  1  0.98851709  0.84277809  0.09718841  1
  C  C1055  1  0.53111827  0.54062869  0.22675503  1
  H  H1056  1  0.92450923  0.69379363  0.21030302  1
  H  H1057  1  0.81904487  0.78218429  0.16205798  1
  C  C1058  1  0.55692015  0.66759576  0.18699210  1
  C  C1059  1  0.83398073  0.70271277  0.23982270  1
  C  C1060  1  0.99287214  0.96363190  0.16957390  1
  H  H1061  1  0.81925906  0.57744985  0.23452106  1
  H  H1062  1  0.94152158  0.91915714  0.21796194  1
  H  H1063  1  0.71574721  0.96371837  0.18377043  1
  C  C1064  1  0.93368607  0.94274530  0.15253440  1
  H  H1065  1  0.94738289  0.89452729  0.14220314  1
  H  H1066  1  0.94743278  0.54123747  0.22172675  1
  H  H1067  1  0.72037007  0.53476255  0.15322420  1
  C  C1068  1  0.69418743  0.86429528  0.16873489  1
  C  C1069  1  0.85710441  0.74244347  0.15491528  1
  C  C1070  1  0.93621330  0.83202455  0.19294158  1
  C  C1071  1  0.71799795  0.91190453  0.18741994  1
  N  N1072  1  0.92513337  0.51858375  0.18330131  1
  N  N1073  1  0.75116614  0.62973665  0.20281925  1
  C  C1074  1  0.97100651  0.87748656  0.20916016  1
  C  C1075  1  0.85400372  0.55149848  0.24990810  1
  H  H1076  1  0.60767732  0.83036800  0.22450360  1
  H  H1077  1  0.92583610  0.71831000  0.10124256  1
  H  H1078  1  0.61549937  0.73359754  0.21602232  1
  C  C1079  1  0.56196788  0.71930761  0.20614950  1
  H  H1080  1  0.52286432  0.99860875  0.17758269  1
  C  C1081  1  0.72464885  0.77727931  0.19564170  1
  C  C1082  1  0.86663371  0.68394490  0.21576051  1
  C  C1083  1  0.55404144  0.85315006  0.23101880  1
  N  N1084  1  0.62192048  0.51795369  0.07882962  1
  H  H1085  1  0.59459007  0.95233352  0.24682905  1
  C  C1086  1  0.97112021  0.53855120  0.20174781  1
  H  H1087  1  0.98171051  0.60679158  0.04181358  1
  C  C1088  1  0.54786422  0.91713813  0.24090123  1
  C  C1089  1  0.97084187  0.56812909  0.05638768  1
  N  N1090  1  0.50872267  0.86073064  0.14380051  1
  H  H1091  1  0.89704372  0.50095794  0.14600104  1
  C  C1092  1  0.58127039  0.51995276  0.05673167  1
  H  H1093  1  0.62580029  0.53449950  0.04156727  1
  C  C1094  1  0.50315658  0.50662291  0.05441905  1
  C  C1095  1  0.85585515  0.89819923  0.24904529  1
  N  N1096  1  0.92394984  0.99928651  0.24895233  1
  H  H1097  1  0.89540778  0.62809794  0.32306589  1
  H  H1098  1  0.79318635  0.94004841  0.34230476  1
  C  C1099  1  0.86392429  0.74174485  0.28794343  1
  H  H1100  1  0.81077579  0.72118421  0.29596923  1
  C  C1101  1  0.86150244  0.64900472  0.33929176  1
  C  C1102  1  0.78855826  0.62380364  0.34500668  1
  C  C1103  1  0.89610228  0.69541757  0.35575469  1
  C  C1104  1  0.91753038  0.77632229  0.30358827  1
  C  C1105  1  0.75163573  0.55968212  0.33454996  1
  N  N1106  1  0.74340835  0.84333860  0.31959967  1
  C  C1107  1  0.67823929  0.86718191  0.32995214  1
  H  H1108  1  0.66168845  0.83473796  0.34702176  1
  C  C1109  1  0.64785709  0.92777583  0.32234377  1
  H  H1110  1  0.64447065  0.51824734  0.43825442  1
  H  H1111  1  0.69565596  0.60769579  0.27487761  1
  C  C1112  1  0.63447865  0.60179277  0.28109220  1
  H  H1113  1  0.90768340  0.78543530  0.32448179  1
  H  H1114  1  0.60033967  0.94949915  0.33308931  1
  N  N1115  1  0.59423439  0.64657121  0.26809047  1
  C  C1116  1  0.90911293  0.57589142  0.26624169  1
  N  N1117  1  0.59586564  0.67454969  0.34574533  1
  C  C1118  1  0.91146593  0.93807780  0.25874014  1
  H  H1119  1  0.92935080  0.62718342  0.26524937  1
  H  H1120  1  0.72425023  0.71076800  0.26245472  1
  C  C1121  1  0.60102445  0.55605255  0.29840312  1
  H  H1122  1  0.87870421  0.83985473  0.35756100  1
  C  C1123  1  0.81137917  0.93135462  0.36376925  1
  C  C1124  1  0.94370237  0.53563608  0.28575390  1
  H  H1125  1  0.81677922  0.55011052  0.29905281  1
  C  C1126  1  0.77843836  0.88130089  0.30158574  1
  C  C1127  1  0.68087620  0.96128377  0.30043549  1
  C  C1128  1  0.74987821  0.93706592  0.28955247  1
  H  H1129  1  0.95565050  0.71378879  0.35292509  1
  H  H1130  1  0.82973389  0.85154851  0.29639111  1
  H  H1131  1  0.95278718  0.93157133  0.27447189  1
  C  C1132  1  0.70300849  0.51911188  0.35033715  1
  C  C1133  1  0.58144716  0.73551795  0.34573671  1
  H  H1134  1  0.62480498  0.75481372  0.33273850  1
  C  C1135  1  0.55560207  0.63330110  0.36066554  1
  H  H1136  1  0.56887774  0.58186172  0.35606272  1
  C  C1137  1  0.77291371  0.53054845  0.31052635  1
  C  C1138  1  0.74750903  0.66124710  0.36434521  1
  H  H1139  1  0.68548438  0.53545278  0.37074313  1
  C  C1140  1  0.95205847  0.76117784  0.25015782  1
  H  H1141  1  0.52258248  0.81592409  0.37096489  1
  N  N1142  1  0.97902869  0.80546919  0.29454287  1
  H  H1143  1  0.94835571  0.91703501  0.33965733  1
  C  C1144  1  0.51492336  0.57225897  0.44741793  1
  H  H1145  1  0.53005538  0.56837276  0.49033341  1
  H  H1146  1  0.63499579  0.51523727  0.30624722  1
  H  H1147  1  0.68960623  0.64724926  0.36943783  1
  H  H1148  1  0.85514303  0.84838818  0.25663843  1
  C  C1149  1  0.50375622  0.99755537  0.39315082  1
  C  C1150  1  0.88080233  0.73657262  0.26058296  1
  H  H1151  1  0.75918206  0.74149381  0.39456978  1
  C  C1152  1  0.68930746  0.86068040  0.39488264  1
  C  C1153  1  0.62139672  0.99005723  0.45367083  1
  C  C1154  1  0.78408450  0.51165296  0.41198608  1
  H  H1155  1  0.74636765  0.64590933  0.40801658  1
  C  C1156  1  0.99208372  0.79805766  0.26806228  1
  N  N1157  1  0.74177072  0.94764395  0.46871106  1
  C  C1158  1  0.85665430  0.87709674  0.37050986  1
  C  C1159  1  0.52083842  0.56029505  0.30306990  1
  C  C1160  1  0.62633733  0.78924738  0.41996425  1
  C  C1161  1  0.98985981  0.55849067  0.30907453  1
  H  H1162  1  0.95060845  0.50480044  0.43206610  1
  N  N1163  1  0.60890706  0.80442067  0.48933966  1
  C  C1164  1  0.51909157  0.64906659  0.27270980  1
  H  H1165  1  0.91816991  0.59859382  0.37767342  1
  H  H1166  1  0.81541788  0.51477078  0.36944101  1
  N  N1167  1  0.72447887  0.67384817  0.44506526  1
  C  C1168  1  0.87967567  0.58081856  0.39374009  1
  C  C1169  1  0.87663110  0.68787767  0.48621446  1
  C  C1170  1  0.62402400  0.61545435  0.41913382  1
  H  H1171  1  0.63276816  0.95483988  0.38268848  1
  C  C1172  1  0.93826126  0.80302238  0.47600540  1
  N  N1173  1  0.85827231  0.72452087  0.37472467  1
  C  C1174  1  0.78452338  0.71108049  0.37848761  1
  C  C1175  1  0.53288317  0.76350226  0.36569941  1
  C  C1176  1  0.81060369  0.95655880  0.40989163  1
  Cu  Cu1177  1  0.97965598  0.66638750  0.42550020  1
  H  H1178  1  0.86623972  0.87810539  0.43510456  1
  H  H1179  1  0.70625235  0.84921504  0.47979554  1
  C  C1180  1  0.86501085  0.58619918  0.43791605  1
  H  H1181  1  0.96805541  0.92609263  0.38955840  1
  C  C1182  1  0.69774027  0.64401666  0.42305343  1
  C  C1183  1  0.67229887  0.93811811  0.45931531  1
  H  H1184  1  0.94852794  0.85594084  0.46912526  1
  N  N1185  1  0.90407479  0.60328252  0.41678246  1
  Cu  Cu1186  1  0.91266688  0.77419170  0.39883015  1
  H  H1187  1  0.74161121  0.87516212  0.38546962  1
  H  H1188  1  0.78160747  0.96007122  0.27279418  1
  H  H1189  1  0.71227478  0.70508915  0.48309684  1
  H  H1190  1  0.65772989  0.88460559  0.45507900  1
  C  C1191  1  0.58380738  0.61486928  0.44381072  1
  C  C1192  1  0.62985694  0.90702709  0.39428342  1
  H  H1193  1  0.77994779  0.52563599  0.45541995  1
  C  C1194  1  0.82486255  0.53350257  0.38961452  1
  N  N1195  1  0.89245232  0.78060867  0.45730374  1
  N  N1196  1  0.86922100  0.85808648  0.39520229  1
  C  C1197  1  0.61015446  0.64984962  0.46626324  1
  C  C1198  1  0.79241970  0.97707433  0.38361181  1
  C  C1199  1  0.56283282  0.88875742  0.40710070  1
  H  H1200  1  0.57033847  0.64868151  0.48374714  1
  H  H1201  1  0.88856269  0.60796560  0.45670551  1
  C  C1202  1  0.80816474  0.54004463  0.43669935  1
  H  H1203  1  0.63482537  0.73915191  0.42875299  1
  H  H1204  1  0.84481640  0.64210163  0.49024512  1
  C  C1205  1  0.84674797  0.89773302  0.41485515  1
  C  C1206  1  0.68245736  0.67690631  0.46655735  1
  C  C1207  1  0.86581560  0.72129501  0.46208135  1
  H  H1208  1  0.60651856  0.58677273  0.40061794  1
  N  N1209  1  0.68730504  0.79939511  0.40359422  1
  H  H1210  1  0.82363150  0.70945700  0.44689219  1
  C  C1211  1  0.56401119  0.82976993  0.42239976  1
  C  C1212  1  0.50522329  0.65801631  0.37984033  1
  C  C1213  1  0.67988474  0.81492420  0.49428970  1
  H  H1214  1  0.51387368  0.81137271  0.43397598  1
  C  C1215  1  0.99917407  0.51393185  0.33085464  1
  H  H1216  1  0.56502225  0.98076927  0.44465603  1
  H  H1217  1  0.79765374  0.98259053  0.42791638  1
  C  C1218  1  0.96278899  0.77419989  0.49898826  1
  H  H1219  1  0.57202526  0.71165103  0.54287604  1
  C  C1220  1  0.60685320  0.73300740  0.52694005  1
  C  C1221  1  0.68587768  0.73781530  0.53071664  1
  H  H1222  1  0.73602625  0.83483814  0.55589607  1
  C  C1223  1  0.77478538  0.87500641  0.54927184  1
  C  C1224  1  0.84657611  0.86027665  0.53841353  1
  C  C1225  1  0.72942362  0.70898277  0.55400683  1
  N  N1226  1  0.75281801  0.93461409  0.55013679  1
  C  C1227  1  0.89615258  0.90883124  0.52916558  1
  H  H1228  1  0.87002550  0.81144994  0.54164960  1
  H  H1229  1  0.62875901  0.67135391  0.57476343  1
  H  H1230  1  0.84130273  0.72192258  0.53764802  1
  C  C1231  1  0.80882998  0.70309345  0.55391857  1
  C  C1232  1  0.69186229  0.67307322  0.57420542  1
  C  C1233  1  0.84384609  0.67545568  0.57584793  1
  C  C1234  1  0.92448609  0.93995101  0.59003269  1
  C  C1235  1  0.73786844  0.64169874  0.59305170  1
  Cu  Cu1236  1  0.65737259  0.94300417  0.56366994  1
  Cu  Cu1237  1  0.55403891  0.92447631  0.59976129  1
  N  N1238  1  0.81391274  0.63917661  0.59436476  1
  H  H1239  1  0.90894906  0.66783052  0.57830020  1
  C  C1240  1  0.55647886  0.93898474  0.52714729  1
  Cu  Cu1241  1  0.77423097  0.88651541  0.59678601  1
  N  N1242  1  0.88354117  0.89540451  0.60348878  1
  N  N1243  1  0.66958836  0.88436435  0.59380639  1
  H  H1244  1  0.60797271  0.80835399  0.57970460  1
  C  C1245  1  0.55700595  0.57550374  0.59558583  1
  C  C1246  1  0.64212024  0.82279835  0.59671208  1
  N  N1247  1  0.51577229  0.91617725  0.54735576  1
  C  C1248  1  0.86590934  0.97305462  0.52964411  1
  H  H1249  1  0.65785192  0.61805322  0.52717999  1
  H  H1250  1  0.89313045  0.96309288  0.57423488  1
  Cu  Cu1251  1  0.68097835  0.95331559  0.62227174  1
  C  C1252  1  0.79580642  0.98465837  0.54174530  1
  C  C1253  1  0.55393402  0.66852431  0.61883925  1
  H  H1254  1  0.71883493  0.61508544  0.61048102  1
  N  N1255  1  0.58253274  0.60844704  0.61517550  1
  H  H1256  1  0.73431867  0.55344282  0.56148987  1
  C  C1257  1  0.66174496  0.56449754  0.52795665  1
  C  C1258  1  0.95672386  0.66502811  0.52666051  1
  C  C1259  1  0.95525933  0.59506555  0.52701692  1
  H  H1260  1  0.78420790  0.78687585  0.51330984  1
  C  C1261  1  0.72182211  0.77911596  0.51245240  1
  C  C1262  1  0.67555938  0.78145938  0.61586300  1
  H  H1263  1  0.67249048  0.72708610  0.61387578  1
  H  H1264  1  0.58149861  0.52506108  0.59798510  1
  H  H1265  1  0.60102720  0.60054310  0.69865226  1
  N  N1266  1  0.62240035  0.53881420  0.50768188  1
  H  H1267  1  0.98590675  0.85230813  0.56530994  1
  N  N1268  1  0.51193911  0.99233542  0.62153029  1
  C  C1269  1  0.57151710  0.76869849  0.50614115  1
  H  H1270  1  0.58110758  0.89628789  0.51782603  1
  H  H1271  1  0.51014256  0.76574349  0.50082633  1
  C  C1272  1  0.54225680  0.58038480  0.69467057  1
  C  C1273  1  0.92352009  0.86321149  0.62287677  1
  N  N1274  1  0.76628071  0.53598223  0.64382106  1
  C  C1275  1  0.69737068  0.52499329  0.54799632  1
  C  C1276  1  0.93420323  0.71017093  0.50398956  1
  C  C1277  1  0.50898692  0.59946817  0.57509226  1
  C  C1278  1  0.98037075  0.89236245  0.52593507  1
  H  H1279  1  0.82500094  0.67424418  0.67427895  1
  C  C1280  1  0.61994523  0.95751985  0.67150197  1
  C  C1281  1  0.76132516  0.75530136  0.65193056  1
  H  H1282  1  0.87391647  0.56508880  0.63760304  1
  C  C1283  1  0.51787905  0.81636274  0.63421749  1
  C  C1284  1  0.99537467  0.88126057  0.63033818  1
  H  H1285  1  0.91126270  0.70652308  0.62898257  1
  H  H1286  1  0.58279521  0.82830968  0.63406049  1
  C  C1287  1  0.50500229  0.69835713  0.60052170  1
  C  C1288  1  0.63164838  0.89657280  0.66132546  1
  C  C1289  1  0.79571271  0.71183381  0.66320164  1
  H  H1290  1  0.81769330  0.90006315  0.65461726  1
  H  H1291  1  0.58390288  0.86142094  0.66300618  1
  C  C1292  1  0.70320106  0.86999118  0.65313390  1
  C  C1293  1  0.76193111  0.91341302  0.65979285  1
  C  C1294  1  0.71244915  0.80337986  0.63953100  1
  H  H1295  1  0.58219395  0.68843617  0.63651207  1
  C  C1296  1  0.84107007  0.52376167  0.64716153  1
  H  H1297  1  0.88894514  0.82424986  0.63264140  1
  H  H1298  1  0.66165596  0.51133261  0.65375679  1
  H  H1299  1  0.52875752  0.58820712  0.65232531  1
  N  N1300  1  0.51543605  0.56117781  0.71804489  1
  H  H1301  1  0.50237385  0.74943681  0.66694062  1
  H  H1302  1  0.98411682  0.50483030  0.55110495  1
  C  C1303  1  0.97532752  0.69866176  0.63079100  1
  C  C1304  1  0.50006111  0.57657387  0.67091188  1
  C  C1305  1  0.98490077  0.55911973  0.54816142  1
  C  C1306  1  0.99470622  0.69257575  0.54832226  1
  N  N1307  1  0.99017491  0.64138218  0.64172904  1
  H  H1308  1  0.57165838  0.98289706  0.67944392  1
  N  N1309  1  0.98983428  0.50281093  0.70750368  1
  C  C1310  1  0.74641327  0.97783951  0.66841152  1
  H  H1311  1  0.93387369  0.56678121  0.51096687  1
