# generated using pymatgen
data_Zn3H26C48(N5O7)2
_symmetry_space_group_name_H-M   'P 1'
_cell_length_a   26.85294497
_cell_length_b   26.97219650
_cell_length_c   35.58371498
_cell_angle_alpha   90.00000000
_cell_angle_beta   90.00000000
_cell_angle_gamma   90.00000000
_symmetry_Int_Tables_number   1
_chemical_formula_structural   Zn3H26C48(N5O7)2
_chemical_formula_sum   'Zn48 H416 C768 N160 O224'
_cell_volume   25772.67657171
_cell_formula_units_Z   16
loop_
 _symmetry_equiv_pos_site_id
 _symmetry_equiv_pos_as_xyz
  1  'x, y, z'
loop_
 _atom_site_type_symbol
 _atom_site_label
 _atom_site_symmetry_multiplicity
 _atom_site_fract_x
 _atom_site_fract_y
 _atom_site_fract_z
 _atom_site_occupancy
  N  N0  1  0.14341265  0.13755660  0.12278679  1
  Zn  Zn1  1  0.13565341  0.19742215  0.15563037  1
  N  N2  1  0.06194325  0.18468960  0.17179610  1
  C  C3  1  0.18709764  0.12137926  0.10592429  1
  H  H4  1  0.14298999  0.07930215  0.06349020  1
  C  C5  1  0.18087859  0.08868353  0.07382855  1
  C  C6  1  0.10886815  0.10327710  0.12599372  1
  N  N7  1  0.04054311  0.14101547  0.16857284  1
  C  C8  1  0.06308890  0.10348298  0.14651621  1
  H  H9  1  0.16496623  0.13032174  0.19097829  1
  N  N10  1  0.19082378  0.22192974  0.18815178  1
  H  H11  1  0.12119262  0.07093045  0.11161874  1
  H  H12  1  0.05647409  0.17769798  0.06738362  1
  C  C13  1  0.20147385  0.11184268  0.19271798  1
  C  C14  1  0.20583580  0.05983904  0.19529319  1
  C  C15  1  0.02166543  0.17810522  0.04788677  1
  H  H16  1  0.06261453  0.03967828  0.08810259  1
  C  C17  1  0.03116316  0.05886212  0.14466532  1
  C  C18  1  0.03524242  0.03053792  0.10970285  1
  C  C19  1  0.22181638  0.07026790  0.05536281  1
  C  C20  1  0.21552340  0.03867257  0.01902181  1
  C  C21  1  0.01749881  0.14807130  0.01561440  1
  O  O22  1  0.17187501  0.02984617  0.19271724  1
  O  O23  1  0.08887826  0.11649986  0.04327130  1
  H  H24  1  0.08191484  0.15131664  0.22017647  1
  C  C25  1  0.06413098  0.11446877  0.01549202  1
  O  O26  1  0.17113788  0.02567144  0.00785914  1
  O  O27  1  0.10430570  0.14488064  0.24040451  1
  C  C28  1  0.24094580  0.14576536  0.19441346  1
  C  C29  1  0.23511977  0.20028897  0.19554608  1
  C  C30  1  0.23710095  0.13939066  0.11386461  1
  H  H31  1  0.24539599  0.17043653  0.13446371  1
  O  O32  1  0.24536134  0.24616396  0.03597523  1
  O  O33  1  0.02148925  0.24098585  0.10437222  1
  H  H34  1  0.26323567  0.01360882  0.13939494  1
  O  O35  1  0.25049400  0.02695538  0.00002161  1
  O  O36  1  0.37325000  0.00909347  0.02201265  1
  C  C37  1  0.25783570  0.04036063  0.19919749  1
  C  C38  1  0.27033625  0.08222508  0.06640988  1
  H  H39  1  0.30228659  0.06829320  0.04990139  1
  O  O40  1  0.32765773  0.18567817  0.12506422  1
  C  C41  1  0.27626866  0.11709259  0.09535824  1
  C  C42  1  0.27698935  0.23302775  0.20111714  1
  H  H43  1  0.31632387  0.22320331  0.20211030  1
  O  O44  1  0.36662888  0.12792576  0.09774240  1
  C  C45  1  0.29057924  0.12497336  0.19751736  1
  C  C46  1  0.32745673  0.14501262  0.10773787  1
  C  C47  1  0.33074876  0.23370706  0.03528648  1
  C  C48  1  0.41924977  0.23169086  0.03373235  1
  C  C49  1  0.29824814  0.07401920  0.20117018  1
  H  H50  1  0.32553423  0.14782041  0.19536023  1
  H  H51  1  0.33817594  0.05966814  0.20488862  1
  C  C52  1  0.41962109  0.19224351  0.00880648  1
  C  C53  1  0.32586886  0.19250325  0.01397317  1
  H  H54  1  0.47414159  0.09087639  0.21669626  1
  H  H55  1  0.28843536  0.17786806  0.00652266  1
  H  H56  1  0.41969943  0.09307979  0.00016599  1
  C  C57  1  0.37186822  0.17247809  0.00086496  1
  Zn  Zn58  1  0.05018604  0.25231806  0.19596013  1
  Zn  Zn59  1  0.15383105  0.26190783  0.22471794  1
  N  N60  1  0.11701505  0.25848025  0.17410114  1
  C  C61  1  0.02631282  0.44763136  0.03264459  1
  O  O62  1  0.19949111  0.28163883  0.11937822  1
  Zn  Zn63  1  0.11362725  0.30958631  0.13662928  1
  N  N64  1  0.04829213  0.31141961  0.16147292  1
  N  N65  1  0.16899209  0.33370786  0.10740536  1
  H  H66  1  0.17038520  0.46916376  0.02005197  1
  N  N67  1  0.07668201  0.36797710  0.11980650  1
  Zn  Zn68  1  0.13107374  0.39888055  0.09020421  1
  C  C69  1  0.00796417  0.41656438  0.09666631  1
  C  C70  1  0.02848702  0.37723868  0.12274654  1
  O  O71  1  0.10521251  0.48448923  0.10327787  1
  C  C72  1  0.01288145  0.34265166  0.15162898  1
  O  O73  1  0.15914117  0.40810278  0.19870270  1
  H  H74  1  0.19032595  0.47558716  0.16617910  1
  C  C75  1  0.19749628  0.40531300  0.21550402  1
  C  C76  1  0.01682478  0.40843373  0.05718345  1
  N  N77  1  0.20207580  0.42434825  0.09252909  1
  H  H78  1  0.20684748  0.42952649  0.12131344  1
  H  H79  1  0.04076379  0.44432602  0.00309674  1
  H  H80  1  0.01751541  0.37022119  0.04523692  1
  C  C81  1  0.02603770  0.49495400  0.05064783  1
  O  O82  1  0.20518295  0.38238807  0.24541928  1
  N  N83  1  0.08131326  0.25188101  0.24899470  1
  H  H84  1  0.10780674  0.40163420  0.00061772  1
  C  C85  1  0.22871935  0.47448594  0.17606005  1
  H  H86  1  0.23172735  0.27827547  0.10815536  1
  Zn  Zn87  1  0.23801443  0.47943896  0.07601108  1
  Zn  Zn88  1  0.23407120  0.35448051  0.08668378  1
  C  C89  1  0.24096104  0.44020208  0.20193337  1
  C  C90  1  0.18124562  0.44049636  0.00108408  1
  O  O91  1  0.39246582  0.44484929  0.24777098  1
  C  C92  1  0.31824581  0.49943174  0.17491070  1
  O  O93  1  0.38855967  0.41801622  0.10916153  1
  C  C94  1  0.32439209  0.46704055  0.20399943  1
  O  O95  1  0.41323976  0.48867136  0.19902798  1
  C  C96  1  0.31254864  0.33738400  0.16325993  1
  C  C97  1  0.44601913  0.31994993  0.22575257  1
  C  C98  1  0.39794184  0.35694946  0.17505677  1
  H  H99  1  0.27839664  0.34101201  0.14750848  1
  C  C100  1  0.47212669  0.25305630  0.04190456  1
  C  C101  1  0.37635502  0.25292123  0.04780456  1
  O  O102  1  0.47599661  0.29205066  0.05852670  1
  H  H103  1  0.37499123  0.28572173  0.06625122  1
  C  C104  1  0.28510105  0.26330597  0.04667785  1
  H  H105  1  0.43091792  0.37832166  0.17078521  1
  C  C106  1  0.31139578  0.30442002  0.19488203  1
  H  H107  1  0.29723359  0.40426575  0.23844632  1
  O  O108  1  0.31260412  0.39560218  0.09998263  1
  N  N109  1  0.26607541  0.27919245  0.19616847  1
  O  O110  1  0.48218557  0.33882165  0.21117924  1
  C  C111  1  0.35204337  0.39419592  0.11742103  1
  C  C112  1  0.39574363  0.32273356  0.20442516  1
  H  H113  1  0.36101062  0.26909020  0.24028213  1
  O  O114  1  0.28517420  0.30186499  0.06644605  1
  C  C115  1  0.38189282  0.46641952  0.21766197  1
  C  C116  1  0.28904962  0.43382846  0.21783602  1
  C  C117  1  0.35552420  0.35978823  0.15360348  1
  C  C118  1  0.35580038  0.29659828  0.21702404  1
  C  C119  1  0.08988150  0.18598547  0.48272576  1
  C  C120  1  0.08055682  0.14150236  0.46278392  1
  C  C121  1  0.07960974  0.22515215  0.42288540  1
  C  C122  1  0.12341443  0.19370914  0.36798993  1
  C  C123  1  0.11930306  0.19808067  0.40686482  1
  H  H124  1  0.14617998  0.17614065  0.42504795  1
  H  H125  1  0.15197774  0.17116619  0.35399898  1
  N  N126  1  0.07657899  0.22925364  0.46311643  1
  C  C127  1  0.11005258  0.09998683  0.46402005  1
  H  H128  1  0.04613605  0.13485338  0.44611909  1
  C  C129  1  0.18682257  0.06127262  0.48571727  1
  O  O130  1  0.13426375  0.06023007  0.38300087  1
  H  H131  1  0.10154329  0.06719567  0.44869156  1
  C  C132  1  0.15207537  0.10475598  0.48842182  1
  N  N133  1  0.23534429  0.06667499  0.47819627  1
  C  C134  1  0.09229131  0.22904460  0.34930557  1
  H  H135  1  0.23795259  0.04096383  0.26861764  1
  H  H136  1  0.22504283  0.03632097  0.40856313  1
  H  H137  1  0.09992183  0.17371403  0.25620330  1
  C  C138  1  0.13598277  0.02677228  0.36081303  1
  C  C139  1  0.17046230  0.01135519  0.48868007  1
  O  O140  1  0.09718471  0.01109430  0.34388495  1
  C  C141  1  0.22465303  0.00606816  0.38735789  1
  N  N142  1  0.07086026  0.24250525  0.28398810  1
  C  C143  1  0.10949855  0.24135066  0.31009583  1
  C  C144  1  0.16012675  0.24674486  0.30746976  1
  O  O145  1  0.25571199  0.19159808  0.42587550  1
  H  H146  1  0.25223087  0.18698118  0.27832440  1
  C  C147  1  0.48347797  0.17396119  0.25741595  1
  C  C148  1  0.27492497  0.02287599  0.27207372  1
  C  C149  1  0.29534675  0.03230817  0.30644027  1
  C  C150  1  0.36453573  0.01935955  0.34964764  1
  C  C151  1  0.29126166  0.21470156  0.41711189  1
  C  C152  1  0.38284433  0.03850062  0.37713821  1
  N  N153  1  0.40362004  0.06346802  0.40768408  1
  H  H154  1  0.31853440  0.11606815  0.42322280  1
  C  C155  1  0.43410665  0.14658106  0.38705568  1
  C  C156  1  0.34976535  0.13790179  0.41306755  1
  C  C157  1  0.33863007  0.18867688  0.40715221  1
  C  C158  1  0.39537602  0.11773925  0.40241299  1
  C  C159  1  0.42218620  0.19854704  0.38549150  1
  C  C160  1  0.37743801  0.22002470  0.39543349  1
  C  C161  1  0.35020500  0.18590141  0.28908085  1
  O  O162  1  0.40709804  0.19576484  0.29745645  1
  C  C163  1  0.26656866  0.22402931  0.28468022  1
  C  C164  1  0.31735279  0.22971153  0.29153489  1
  C  C165  1  0.43625959  0.17260226  0.27351354  1
  H  H166  1  0.27886899  0.05749025  0.32732749  1
  O  O167  1  0.33325584  0.14711385  0.28334655  1
  H  H168  1  0.41167882  0.13886589  0.26530804  1
  H  H169  1  0.44015902  0.05468393  0.41640797  1
  H  H170  1  0.47191535  0.12978546  0.37837591  1
  N  N171  1  0.45193115  0.05825390  0.48102483  1
  Zn  Zn172  1  0.28293749  0.01101812  0.46935125  1
  C  C173  1  0.33975225  0.00290911  0.31514933  1
  O  O174  1  0.49758223  0.21738964  0.35013415  1
  C  C175  1  0.45682020  0.23335778  0.36271427  1
  N  N176  1  0.49475849  0.05779232  0.49409667  1
  C  C177  1  0.00564069  0.41021569  0.39071789  1
  H  H178  1  0.18357981  0.25048919  0.33369840  1
  N  N179  1  0.18463670  0.26085935  0.27558873  1
  C  C180  1  0.23711320  0.26734750  0.28407973  1
  C  C181  1  0.04226430  0.25265558  0.40228631  1
  C  C182  1  0.04965376  0.25603167  0.36435005  1
  H  H183  1  0.01336236  0.27029632  0.41846222  1
  H  H184  1  0.23478050  0.26728980  0.44879452  1
  C  C185  1  0.07412273  0.27602602  0.47894224  1
  C  C186  1  0.23789380  0.28940885  0.42170304  1
  H  H187  1  0.02222524  0.27635609  0.34581896  1
  H  H188  1  0.04559414  0.33346536  0.28921985  1
  C  C189  1  0.02040453  0.45044407  0.36502324  1
  H  H190  1  0.14109830  0.48700734  0.40455324  1
  H  H191  1  0.10038390  0.31795324  0.42951651  1
  C  C192  1  0.09409717  0.31916221  0.45977080  1
  C  C193  1  0.21006859  0.32308261  0.41115964  1
  H  H194  1  0.12955511  0.30469637  0.37152306  1
  H  H195  1  0.06302778  0.35824733  0.35606556  1
  C  C196  1  0.13495365  0.34143522  0.37959145  1
  C  C197  1  0.17629291  0.36022456  0.40099003  1
  C  C198  1  0.10328699  0.42647601  0.37662551  1
  C  C199  1  0.09746790  0.37387459  0.37054698  1
  C  C200  1  0.18242511  0.41684577  0.41037327  1
  N  N201  1  0.06878663  0.46273555  0.36239068  1
  C  C202  1  0.14164324  0.44769898  0.39756718  1
  H  H203  1  0.11773399  0.39278864  0.46593510  1
  H  H204  1  0.03636368  0.39734612  0.40952394  1
  H  H205  1  0.14359688  0.46600966  0.32627144  1
  C  C206  1  0.10488016  0.36079764  0.48005278  1
  O  O207  1  0.02692299  0.34053030  0.31400549  1
  O  O208  1  0.21735173  0.43338087  0.42835858  1
  H  H209  1  0.11944103  0.31349483  0.26256403  1
  H  H210  1  0.23422312  0.35013330  0.28893272  1
  O  O211  1  0.11438010  0.34894864  0.25376645  1
  H  H212  1  0.14731942  0.36653076  0.25135462  1
  O  O213  1  0.30261487  0.40192700  0.31024186  1
  O  O214  1  0.44646909  0.27704912  0.36039984  1
  C  C215  1  0.30760218  0.31572056  0.30083219  1
  C  C216  1  0.33890090  0.27625335  0.30007574  1
  H  H217  1  0.37180011  0.26016052  0.39452137  1
  O  O218  1  0.29178424  0.26424476  0.41308175  1
  C  C219  1  0.33269674  0.36786429  0.30984625  1
  O  O220  1  0.46974687  0.41692741  0.39968107  1
  H  H221  1  0.37811873  0.28400931  0.30673848  1
  C  C222  1  0.25740342  0.31421931  0.29293128  1
  O  O223  1  0.37770197  0.37265277  0.31575150  1
  O  O224  1  0.44778307  0.29403428  0.25458191  1
  H  H225  1  0.03233643  0.14922346  0.59515843  1
  O  O226  1  0.21440220  0.11140555  0.64959978  1
  O  O227  1  0.06639352  0.21097835  0.64612074  1
  H  H228  1  0.04771939  0.24619197  0.53092451  1
  O  O229  1  0.12902950  0.03328487  0.69976540  1
  H  H230  1  0.09462020  0.03438395  0.69433657  1
  O  O231  1  0.12565849  0.03638724  0.57560025  1
  H  H232  1  0.21183724  0.01647154  0.70616406  1
  C  C233  1  0.05590771  0.24094809  0.62055515  1
  O  O234  1  0.24589061  0.12070701  0.59336869  1
  H  H235  1  0.13007317  0.21967377  0.53199837  1
  O  O236  1  0.10363333  0.10889200  0.72830458  1
  C  C237  1  0.21853875  0.04009585  0.73003054  1
  C  C238  1  0.13339880  0.07665651  0.72611444  1
  H  H239  1  0.22002893  0.01228990  0.57659034  1
  H  H240  1  0.18861907  0.14338227  0.53357324  1
  C  C241  1  0.00591200  0.17508282  0.58226543  1
  C  C242  1  0.01243094  0.22509689  0.58960373  1
  C  C243  1  0.24833397  0.10834894  0.62853984  1
  C  C244  1  0.18465609  0.07585423  0.74416237  1
  H  H245  1  0.24937685  0.23223254  0.70379602  1
  C  C246  1  0.15863382  0.14702547  0.51289088  1
  C  C247  1  0.12761953  0.18816013  0.51235499  1
  N  N248  1  0.27868633  0.08129555  0.56446768  1
  H  H249  1  0.26959107  0.11802810  0.70039568  1
  C  C250  1  0.30329536  0.11038547  0.68469079  1
  C  C251  1  0.30016086  0.10301965  0.64568396  1
  N  N252  1  0.35125609  0.14698384  0.73357340  1
  C  C253  1  0.35113342  0.11816277  0.70118673  1
  H  H254  1  0.33913082  0.09076165  0.59498218  1
  C  C255  1  0.34171314  0.09730834  0.62517918  1
  H  H256  1  0.43938504  0.03377949  0.71526285  1
  C  C257  1  0.39501222  0.10728230  0.68225396  1
  C  C258  1  0.39062070  0.09533633  0.64276407  1
  O  O259  1  0.42767996  0.08537208  0.62330823  1
  C  C260  1  0.32136514  0.18468447  0.72921605  1
  H  H261  1  0.43211157  0.11339594  0.69317353  1
  H  H262  1  0.30603351  0.18724781  0.70090844  1
  C  C263  1  0.45582068  0.04407451  0.74242787  1
  Zn  Zn264  1  0.31041080  0.01928808  0.55973912  1
  N  N265  1  0.25699721  0.21165458  0.51797616  1
  N  N266  1  0.28768801  0.18196288  0.50683929  1
  Zn  Zn267  1  0.28078292  0.10483945  0.51428225  1
  N  N268  1  0.32061378  0.04639779  0.50802581  1
  Zn  Zn269  1  0.38792635  0.02711996  0.50159409  1
  C  C270  1  0.26357748  0.03842795  0.74933692  1
  O  O271  1  0.07864295  0.28070972  0.61635957  1
  C  C272  1  0.00817607  0.35027588  0.66783044  1
  C  C273  1  0.06335791  0.27950020  0.51844835  1
  C  C274  1  0.20394514  0.48207298  0.69379718  1
  H  H275  1  0.07667074  0.31844500  0.56866505  1
  H  H276  1  0.08032400  0.41822044  0.63337195  1
  H  H277  1  0.15867678  0.43263571  0.64994537  1
  C  C278  1  0.13676142  0.41164961  0.66994506  1
  C  C279  1  0.05960008  0.36517733  0.67921689  1
  C  C280  1  0.15654266  0.38863983  0.70326069  1
  C  C281  1  0.07595123  0.34437906  0.71344939  1
  C  C282  1  0.08828599  0.40049878  0.65942544  1
  N  N283  1  0.20625702  0.39624723  0.71454926  1
  H  H284  1  0.20672121  0.30135803  0.68608449  1
  N  N285  1  0.17184224  0.44482723  0.58890318  1
  C  C286  1  0.13556820  0.42911621  0.56437947  1
  C  C287  1  0.10851260  0.40573305  0.54377613  1
  C  C288  1  0.12494942  0.35429237  0.72391265  1
  H  H289  1  0.05126978  0.31807010  0.73064786  1
  H  H290  1  0.18139214  0.48189295  0.59358393  1
  H  H291  1  0.06104155  0.43467452  0.71447051  1
  C  C292  1  0.03442619  0.46237925  0.71370779  1
  C  C293  1  0.09363676  0.36478007  0.51924185  1
  C  C294  1  0.07457447  0.32160909  0.53844599  1
  C  C295  1  0.23084673  0.44082286  0.70914047  1
  C  C296  1  0.22776327  0.30777968  0.71196351  1
  C  C297  1  0.23335737  0.35506241  0.72927689  1
  H  H298  1  0.17280939  0.36252495  0.54994135  1
  C  C299  1  0.21347088  0.40915232  0.58804872  1
  C  C300  1  0.20900761  0.36897977  0.56305379  1
  H  H301  1  0.16320821  0.48444905  0.69267862  1
  O  O302  1  0.19944322  0.30234373  0.50683027  1
  H  H303  1  0.14069638  0.33735090  0.74757086  1
  C  C304  1  0.23974525  0.30302279  0.52143557  1
  H  H305  1  0.32769175  0.32300739  0.56301591  1
  C  C306  1  0.29826473  0.37999282  0.59860604  1
  C  C307  1  0.30994556  0.48233471  0.70204745  1
  C  C308  1  0.29700031  0.34620693  0.56900802  1
  C  C309  1  0.35031292  0.38296931  0.61923124  1
  C  C310  1  0.25837342  0.41176540  0.60681604  1
  H  H311  1  0.35061325  0.48571281  0.70239026  1
  C  C312  1  0.25544431  0.26605070  0.72002790  1
  O  O313  1  0.38284690  0.35769526  0.60401873  1
  O  O314  1  0.27493902  0.27272154  0.51169565  1
  O  O315  1  0.47916551  0.41657894  0.74965318  1
  C  C316  1  0.25046559  0.34121350  0.55182676  1
  C  C317  1  0.48191404  0.32547454  0.74202422  1
  H  H318  1  0.26365948  0.43903609  0.62979786  1
  C  C319  1  0.28479465  0.44226371  0.71531820  1
  O  O320  1  0.35627633  0.40650250  0.64876222  1
  H  H321  1  0.29855279  0.41128499  0.73048457  1
  H  H322  1  0.18109349  0.13681532  0.83832559  1
  Zn  Zn323  1  0.14249614  0.07223482  0.96524234  1
  C  C324  1  0.04749894  0.08857460  0.89125787  1
  H  H325  1  0.04339834  0.15880437  0.85968010  1
  C  C326  1  0.21758129  0.15416478  0.84289047  1
  O  O327  1  0.12184209  0.11600963  0.86054513  1
  C  C328  1  0.02876642  0.05270031  0.91321600  1
  C  C329  1  0.10566321  0.08785131  0.88358605  1
  O  O330  1  0.13310241  0.06206762  0.90349438  1
  H  H331  1  0.16692785  0.13922577  0.77846769  1
  C  C332  1  0.19518419  0.11109227  0.77112453  1
  H  H333  1  0.04839933  0.01842829  0.92250331  1
  O  O334  1  0.07279283  0.08738910  0.98645427  1
  N  N335  1  0.20648438  0.10475452  0.93307830  1
  H  H336  1  0.13449463  0.20872655  0.85529557  1
  C  C337  1  0.22923030  0.18461603  0.87367191  1
  C  C338  1  0.02415895  0.13145201  0.87845558  1
  C  C339  1  0.19762669  0.21941675  0.89426146  1
  O  O340  1  0.13541500  0.20540880  0.78453992  1
  O  O341  1  0.21182453  0.22451810  0.78636432  1
  C  C342  1  0.14795515  0.22974106  0.88015875  1
  N  N343  1  0.00190863  0.23981368  0.87701049  1
  C  C344  1  0.16819952  0.23655951  0.78914300  1
  C  C345  1  0.24161322  0.10886225  0.78895165  1
  H  H346  1  0.23606063  0.06717124  0.89098912  1
  N  N347  1  0.24775674  0.10959457  0.94577184  1
  C  C348  1  0.21962674  0.24282119  0.92765576  1
  N  N349  1  0.25245425  0.14002744  0.81825027  1
  O  O350  1  0.25650654  0.05393562  0.87039709  1
  H  H351  1  0.26886594  0.08400879  0.86060966  1
  C  C352  1  0.27564409  0.07172342  0.77787152  1
  C  C353  1  0.43299488  0.02886643  0.92136219  1
  Zn  Zn354  1  0.37998317  0.08204633  0.85744906  1
  N  N355  1  0.37262647  0.08753032  0.91328639  1
  C  C356  1  0.40323075  0.06908908  0.93962244  1
  C  C357  1  0.39815433  0.09622730  0.97356015  1
  N  N358  1  0.36768206  0.13327440  0.97335191  1
  N  N359  1  0.32778651  0.12713839  0.86710097  1
  Zn  Zn360  1  0.31498312  0.13352346  0.92151764  1
  N  N361  1  0.39949354  0.13982670  0.82932710  1
  Zn  Zn362  1  0.33229235  0.18127749  0.83361795  1
  C  C363  1  0.43985403  0.14604097  0.80980625  1
  N  N364  1  0.27983048  0.18875631  0.88217599  1
  C  C365  1  0.44926529  0.19303492  0.79239701  1
  C  C366  1  0.46546559  0.09704395  0.79815768  1
  H  H367  1  0.31233153  0.06572824  0.79013597  1
  N  N368  1  0.34729528  0.22111744  0.78765412  1
  H  H369  1  0.29922534  0.21935795  0.89268666  1
  C  C370  1  0.42106530  0.02417926  0.88186489  1
  H  H371  1  0.42704845  0.22660027  0.79331977  1
  H  H372  1  0.25397567  0.23105099  0.94166884  1
  C  C373  1  0.31998481  0.22557200  0.75713349  1
  N  N374  1  0.48995463  0.19304116  0.77218806  1
  O  O375  1  0.43351586  0.22140035  0.90212020  1
  O  O376  1  0.35222765  0.23882061  0.92027629  1
  C  C377  1  0.49454991  0.23804599  0.75377286  1
  H  H378  1  0.45193241  0.17717223  0.99325489  1
  H  H379  1  0.41478892  0.11057421  0.75366573  1
  C  C380  1  0.49080493  0.01160092  0.75901193  1
  C  C381  1  0.44156894  0.08371808  0.76396336  1
  C  C382  1  0.02536798  0.49082953  0.87986277  1
  C  C383  1  0.15349578  0.48392374  0.76263087  1
  N  N384  1  0.00868960  0.27961812  0.86219931  1
  N  N385  1  0.02941205  0.47634880  0.84633251  1
  H  H386  1  0.06925403  0.25654476  0.95725058  1
  H  H387  1  0.07826863  0.27259421  0.78636027  1
  C  C388  1  0.15302324  0.29158466  0.80292697  1
  H  H389  1  0.22695940  0.31648042  0.82001690  1
  C  C390  1  0.03029344  0.39351996  0.76942754  1
  C  C391  1  0.12369399  0.26871732  0.89600633  1
  C  C392  1  0.19417820  0.28193240  0.94302327  1
  H  H393  1  0.08773482  0.28330267  0.88380379  1
  H  H394  1  0.10505330  0.42385035  0.82987066  1
  C  C395  1  0.12023063  0.38734222  0.82067431  1
  C  C396  1  0.07485782  0.33764544  0.95280174  1
  C  C397  1  0.14631871  0.29676461  0.92705196  1
  N  N398  1  0.12677567  0.33670967  0.94417477  1
  C  C399  1  0.08770164  0.35107585  0.80505799  1
  C  C400  1  0.16857449  0.37015413  0.82898001  1
  C  C401  1  0.18726740  0.32493627  0.81660226  1
  C  C402  1  0.16116444  0.37172507  0.95922195  1
  C  C403  1  0.10435065  0.30245197  0.79629095  1
  C  C404  1  0.20845437  0.37428350  0.94051483  1
  C  C405  1  0.04755395  0.38239713  0.94686765  1
  C  C406  1  0.04820223  0.29189713  0.95884102  1
  C  C407  1  0.20262305  0.40361639  0.85152557  1
  H  H408  1  0.21590786  0.35017762  0.91524379  1
  H  H409  1  0.20861980  0.30114324  0.96767685  1
  O  O410  1  0.18828234  0.44487147  0.86169702  1
  N  N411  1  0.03688997  0.35696061  0.79457775  1
  H  H412  1  0.06211900  0.41413779  0.93082632  1
  C  C413  1  0.22890174  0.44141236  0.98281796  1
  C  C414  1  0.14743093  0.40481509  0.98928582  1
  H  H415  1  0.06639096  0.41285753  0.76397942  1
  C  C416  1  0.24396616  0.40595169  0.95458441  1
  O  O417  1  0.24795328  0.39259148  0.85286540  1
  O  O418  1  0.32293919  0.31503338  0.80205028  1
  C  C419  1  0.48195491  0.49459997  0.92403460  1
  H  H420  1  0.43353993  0.43067524  0.83832323  1
  N  N421  1  0.33250244  0.46152313  0.95002990  1
  H  H422  1  0.43461980  0.28925324  0.78025612  1
  N  N423  1  0.33985493  0.41909484  0.86284131  1
  C  C424  1  0.36472817  0.33922829  0.88727587  1
  H  H425  1  0.34683677  0.45332515  0.84922756  1
  N  N426  1  0.33363854  0.25788830  0.82208095  1
  C  C427  1  0.31316340  0.49076145  0.97486939  1
  C  C428  1  0.26702716  0.47855344  0.99366685  1
  C  C429  1  0.29265001  0.31348077  0.77405962  1
  O  O430  1  0.41976608  0.37286116  0.77248226  1
  O  O431  1  0.31174306  0.49898036  0.79630228  1
  H  H432  1  0.40760363  0.39816107  0.94837094  1
  C  C433  1  0.38209583  0.47490481  0.94178400  1
  H  H434  1  0.28255457  0.40776784  0.94402150  1
  O  O435  1  0.49865583  0.36325603  0.94028013  1
  C  C436  1  0.42412553  0.39523770  0.85109270  1
  C  C437  1  0.46706349  0.28380349  0.76122179  1
  H  H438  1  0.34114787  0.27254699  0.92155677  1
  C  C439  1  0.26330808  0.35338604  0.76187649  1
  H  H440  1  0.26506756  0.38551486  0.78168360  1
  H  H441  1  0.36086810  0.26531807  0.83977946  1
  H  H442  1  0.47792810  0.28104235  0.86940305  1
  C  C443  1  0.44955433  0.31034728  0.86679032  1
  C  C444  1  0.40354759  0.30203874  0.88557212  1
  C  C445  1  0.46790113  0.44702382  0.93574309  1
  C  C446  1  0.40179075  0.25172650  0.90133726  1
  C  C447  1  0.41820169  0.43659899  0.94286109  1
  H  H448  1  0.30005889  0.41523858  0.86970825  1
  C  C449  1  0.46009183  0.35759199  0.85432209  1
  O  O450  1  0.32568580  0.33146593  0.90445341  1
  C  C451  1  0.45817689  0.37645700  0.75434962  1
  C  C452  1  0.37685456  0.38563316  0.86626211  1
  C  C453  1  0.28866250  0.26852838  0.75059306  1
  H  H454  1  0.09925363  0.60714872  0.01089350  1
  C  C455  1  0.16578676  0.60888307  0.04774883  1
  C  C456  1  0.11955030  0.58888974  0.03438339  1
  C  C457  1  0.09919946  0.54738192  0.05151719  1
  O  O458  1  0.18624707  0.64682239  0.03591080  1
  C  C459  1  0.18633253  0.58132890  0.08104805  1
  C  C460  1  0.16416420  0.54361246  0.09874727  1
  N  N461  1  0.05924529  0.52971941  0.03157053  1
  H  H462  1  0.18318834  0.53025908  0.12461857  1
  C  C463  1  0.11954291  0.52170229  0.08701997  1
  H  H464  1  0.23938775  0.69658897  0.21460495  1
  N  N465  1  0.23202382  0.67739073  0.06809394  1
  C  C466  1  0.23315689  0.59683056  0.09720865  1
  N  N467  1  0.24854993  0.64480874  0.09105370  1
  C  C468  1  0.00175922  0.50419737  0.08685575  1
  O  O469  1  0.25300579  0.66509807  0.21103098  1
  N  N470  1  0.25471982  0.50540713  0.02334743  1
  H  H471  1  0.34973678  0.52212060  0.16430363  1
  H  H472  1  0.26589503  0.66469559  0.18638105  1
  C  C473  1  0.26216456  0.56955428  0.12454393  1
  H  H474  1  0.27826680  0.53238067  0.03373061  1
  H  H475  1  0.27589515  0.58470553  0.15281783  1
  H  H476  1  0.34560734  0.69756341  0.18031382  1
  N  N477  1  0.33088291  0.69066418  0.15184053  1
  N  N478  1  0.30002916  0.72125071  0.13922347  1
  O  O479  1  0.35351420  0.67708465  0.07058551  1
  H  H480  1  0.32300387  0.66497781  0.06370369  1
  H  H481  1  0.34920873  0.68012400  0.09693840  1
  O  O482  1  0.36536286  0.71972348  0.22037921  1
  O  O483  1  0.37592824  0.52253130  0.04018695  1
  N  N484  1  0.25924272  0.52043173  0.12193447  1
  C  C485  1  0.39991271  0.50101147  0.02303023  1
  H  H486  1  0.30360586  0.70880175  0.01003686  1
  C  C487  1  0.26837290  0.50486699  0.15966188  1
  C  C488  1  0.38754398  0.73490259  0.24908107  1
  Zn  Zn489  1  0.27074832  0.74214340  0.08346038  1
  N  N490  1  0.20043441  0.75705698  0.23210748  1
  N  N491  1  0.23993015  0.77378833  0.22104734  1
  H  H492  1  0.02106902  0.95780568  0.08302465  1
  C  C493  1  0.01270205  0.98509148  0.10637961  1
  C  C494  1  0.25681449  0.84591315  0.09679980  1
  C  C495  1  0.26844965  0.87298701  0.16303232  1
  O  O496  1  0.43630452  0.96954612  0.19887079  1
  H  H497  1  0.25172999  0.95348351  0.08690633  1
  C  C498  1  0.25898551  0.93979904  0.11577505  1
  O  O499  1  0.34140823  0.99955125  0.07657350  1
  C  C500  1  0.36477661  0.98328167  0.04976879  1
  C  C501  1  0.27298869  0.90305396  0.19441740  1
  H  H502  1  0.44722478  0.79798405  0.05194734  1
  N  N503  1  0.27471109  0.99335437  0.20949662  1
  H  H504  1  0.35938103  0.93973193  0.23037362  1
  C  C505  1  0.43832869  0.86605166  0.01872972  1
  H  H506  1  0.27503267  0.89011490  0.22450081  1
  C  C507  1  0.26353603  0.97239811  0.14575861  1
  C  C508  1  0.26706528  0.84281232  0.05643341  1
  N  N509  1  0.25975865  0.80186419  0.11248423  1
  C  C510  1  0.38748537  0.92949350  0.05104717  1
  C  C511  1  0.46658125  0.95550794  0.22159407  1
  O  O512  1  0.41269783  0.77572489  0.12263651  1
  Zn  Zn513  1  0.26680887  0.79282761  0.16745376  1
  H  H514  1  0.48309007  0.93300935  0.14888569  1
  C  C515  1  0.41531211  0.91441312  0.02001464  1
  C  C516  1  0.43034589  0.83406843  0.05079272  1
  H  H517  1  0.26855204  0.87185889  0.03473566  1
  H  H518  1  0.35652604  0.90833086  0.10513834  1
  N  N519  1  0.27966506  0.79801951  0.04524540  1
  C  C520  1  0.39069267  0.81480015  0.11907403  1
  C  C521  1  0.30207272  0.79317304  0.01162161  1
  C  C522  1  0.38002168  0.89682255  0.08150454  1
  C  C523  1  0.40249340  0.84979665  0.08209773  1
  O  O524  1  0.36942679  0.83305967  0.14671068  1
  C  C525  1  0.27207167  0.95460129  0.18281548  1
  C  C526  1  0.26188364  0.88726412  0.12532927  1
  C  C527  1  0.29858741  0.99078188  0.24441586  1
  H  H528  1  0.07425583  0.63021048  0.35477072  1
  N  N529  1  0.14620459  0.67661203  0.30539308  1
  C  C530  1  0.16560430  0.64358061  0.32605954  1
  C  C531  1  0.21865252  0.65669047  0.33214694  1
  C  C532  1  0.09171999  0.59461465  0.35019886  1
  C  C533  1  0.13802011  0.59253773  0.33228153  1
  C  C534  1  0.05954101  0.55548841  0.35864398  1
  N  N535  1  0.23071106  0.69629799  0.31535849  1
  C  C536  1  0.16161101  0.54627619  0.32431866  1
  H  H537  1  0.19820866  0.54505317  0.31061641  1
  Zn  Zn538  1  0.17885237  0.73857500  0.28755174  1
  O  O539  1  0.01511464  0.55881380  0.37717435  1
  O  O540  1  0.23181217  0.66144952  0.43574685  1
  C  C541  1  0.08501166  0.50938260  0.34891577  1
  C  C542  1  0.13340324  0.50532028  0.33359537  1
  O  O543  1  0.01789741  0.64196253  0.39307578  1
  H  H544  1  0.25003400  0.63614323  0.34757701  1
  O  O545  1  0.27609269  0.62976446  0.38994190  1
  C  C546  1  0.26915640  0.64221609  0.42394715  1
  C  C547  1  0.28174076  0.70984534  0.31863929  1
  C  C548  1  0.31289403  0.62909407  0.45419100  1
  H  H549  1  0.35407468  0.57800337  0.41779137  1
  C  C550  1  0.35041830  0.59613693  0.44499187  1
  C  C551  1  0.30574845  0.71235164  0.28236545  1
  C  C552  1  0.38642251  0.58528573  0.47342929  1
  H  H553  1  0.48244848  0.68916919  0.42092941  1
  C  C554  1  0.30992120  0.65471166  0.48760505  1
  H  H555  1  0.27837064  0.68043283  0.49338538  1
  C  C556  1  0.35436704  0.72779264  0.28471662  1
  H  H557  1  0.28874528  0.69958706  0.25491684  1
  C  C558  1  0.42622919  0.54809603  0.46792988  1
  C  C559  1  0.30521705  0.71972636  0.35408574  1
  O  O560  1  0.45367710  0.53851452  0.49369870  1
  O  O561  1  0.43465978  0.52741614  0.43294682  1
  H  H562  1  0.28273505  0.72145756  0.38220870  1
  C  C563  1  0.35421490  0.73632090  0.35080966  1
  C  C564  1  0.38046236  0.73989976  0.31771778  1
  H  H565  1  0.46451032  0.50038100  0.43682055  1
  H  H566  1  0.07568688  0.76312635  0.44424838  1
  H  H567  1  0.15369311  0.79664338  0.36708239  1
  O  O568  1  0.16689193  0.79548673  0.39173198  1
  N  N569  1  0.13626374  0.80166685  0.30819584  1
  H  H570  1  0.21204587  0.78822731  0.45973605  1
  N  N571  1  0.09480435  0.79626670  0.32090403  1
  C  C572  1  0.07398853  0.80177153  0.45418372  1
  C  C573  1  0.16802672  0.84804543  0.39987360  1
  O  O574  1  0.15393129  0.87758647  0.37803406  1
  Zn  Zn575  1  0.04358851  0.84771936  0.34154676  1
  N  N576  1  0.05289366  0.92511943  0.33615764  1
  N  N577  1  0.08782741  0.94467121  0.35257367  1
  H  H578  1  0.16176603  0.95905065  0.31101756  1
  C  C579  1  0.19308717  0.96295208  0.33180367  1
  H  H580  1  0.16674031  0.93865810  0.42478940  1
  C  C581  1  0.18199545  0.91381206  0.44567067  1
  C  C582  1  0.18463380  0.86299339  0.43836191  1
  C  C583  1  0.05142549  0.83955647  0.42956480  1
  C  C584  1  0.05227264  0.89039907  0.44086307  1
  O  O585  1  0.19741839  0.88601055  0.27332766  1
  N  N586  1  0.20861711  0.98219260  0.48377708  1
  C  C587  1  0.20498859  0.82832191  0.46473588  1
  C  C588  1  0.19961584  0.92995141  0.48005853  1
  C  C589  1  0.06239480  0.89943032  0.47859504  1
  C  C590  1  0.18928880  0.99997295  0.35938371  1
  N  N591  1  0.02763570  0.82504171  0.39656701  1
  C  C592  1  0.23218923  0.92926180  0.33128508  1
  H  H593  1  0.03907488  0.91877545  0.42333950  1
  C  C594  1  0.23175509  0.88957603  0.29593799  1
  H  H595  1  0.13330164  0.99576864  0.49477507  1
  C  C596  1  0.08745800  0.81521284  0.48975845  1
  C  C597  1  0.22100154  0.84736136  0.49846371  1
  C  C598  1  0.04541058  0.95182497  0.48935839  1
  O  O599  1  0.03303169  0.98320013  0.46775965  1
  H  H600  1  0.40322074  0.87861498  0.49619730  1
  C  C601  1  0.49391667  0.91362364  0.41664959  1
  C  C602  1  0.41832689  0.92565212  0.44880914  1
  H  H603  1  0.41866321  0.75486287  0.31715184  1
  C  C604  1  0.44901100  0.93839561  0.41715572  1
  N  N605  1  0.34943568  0.97737954  0.47465911  1
  H  H606  1  0.30440270  0.91216973  0.35438702  1
  C  C607  1  0.43079903  0.88806548  0.47468851  1
  O  O608  1  0.27099518  0.86472595  0.29341779  1
  C  C609  1  0.34151631  0.96105231  0.25301437  1
  C  C610  1  0.38893666  0.75210502  0.38518215  1
  O  O611  1  0.37331735  0.75081873  0.41700235  1
  H  H612  1  0.46613098  0.77621572  0.43683514  1
  C  C613  1  0.26537636  0.97179631  0.38636589  1
  H  H614  1  0.44192398  0.97253813  0.40044710  1
  O  O615  1  0.43132149  0.76263206  0.37640730  1
  C  C616  1  0.36231782  0.96917467  0.28917053  1
  O  O617  1  0.46513392  0.96429572  0.25529243  1
  H  H618  1  0.48027851  0.82952178  0.49119534  1
  C  C619  1  0.27017482  0.93475756  0.35646506  1
  H  H620  1  0.39730427  0.95107154  0.29715692  1
  H  H621  1  0.34317292  0.92202913  0.38958281  1
  C  C622  1  0.47318892  0.85915116  0.47156688  1
  C  C623  1  0.36561358  0.94615141  0.44842163  1
  C  C624  1  0.33703889  0.94621151  0.41427562  1
  N  N625  1  0.29750963  0.97320241  0.41723009  1
  O  O626  1  0.42608700  0.75669760  0.25084839  1
  C  C627  1  0.07734334  0.64885677  0.66135081  1
  C  C628  1  0.16322042  0.64594041  0.68268740  1
  C  C629  1  0.06460042  0.61037450  0.68636338  1
  C  C630  1  0.12599465  0.66492059  0.65781717  1
  C  C631  1  0.21466120  0.66695287  0.67828771  1
  H  H632  1  0.13936792  0.69391749  0.63788247  1
  H  H633  1  0.04900363  0.66203587  0.64135593  1
  N  N634  1  0.22030964  0.68592260  0.64506377  1
  C  C635  1  0.14901236  0.61085251  0.71085799  1
  C  C636  1  0.10062305  0.59337786  0.71467270  1
  H  H637  1  0.20922842  0.55429966  0.66593337  1
  O  O638  1  0.19359062  0.54095997  0.60632552  1
  H  H639  1  0.18875469  0.57591606  0.60511850  1
  H  H640  1  0.09141356  0.56736178  0.73802375  1
  C  C641  1  0.23000607  0.52232252  0.67894324  1
  N  N642  1  0.01465692  0.59169973  0.68325054  1
  H  H643  1  0.07809442  0.51501406  0.68041845  1
  H  H644  1  0.17678968  0.60074804  0.73320031  1
  H  H645  1  0.20860806  0.71518222  0.74787907  1
  H  H646  1  0.22877646  0.53887745  0.60695989  1
  O  O647  1  0.10130774  0.72576221  0.51402316  1
  O  O648  1  0.19643571  0.74746964  0.74319373  1
  C  C649  1  0.04327845  0.50680821  0.69412453  1
  C  C650  1  0.00406248  0.54274002  0.69269587  1
  H  H651  1  0.17156646  0.73808567  0.72509828  1
  N  N652  1  0.25064487  0.64498892  0.73709829  1
  C  C653  1  0.25714179  0.66017276  0.70339311  1
  N  N654  1  0.26720327  0.70424874  0.63638211  1
  H  H655  1  0.32798860  0.52876900  0.57925332  1
  N  N656  1  0.29339137  0.57037157  0.62429384  1
  N  N657  1  0.28771690  0.59557376  0.59532202  1
  Zn  Zn658  1  0.30780944  0.67240817  0.59280651  1
  H  H659  1  0.29622571  0.66329534  0.69310257  1
  C  C660  1  0.31173569  0.55761824  0.65824574  1
  C  C661  1  0.35804021  0.58042141  0.66955558  1
  H  H662  1  0.37862708  0.61103876  0.65626688  1
  O  O663  1  0.39194966  0.68014441  0.68729537  1
  N  N664  1  0.37441578  0.57045795  0.70275311  1
  C  C665  1  0.41507201  0.59705969  0.71372908  1
  N  N666  1  0.35164249  0.67657934  0.54620486  1
  C  C667  1  0.41945457  0.65144501  0.70406195  1
  C  C668  1  0.46330086  0.67125130  0.72306142  1
  C  C669  1  0.39346273  0.70543878  0.54489353  1
  O  O670  1  0.42528934  0.62504999  0.60089806  1
  O  O671  1  0.42417228  0.54517292  0.59556126  1
  C  C672  1  0.44153793  0.58375874  0.60879143  1
  C  C673  1  0.28418737  0.52002579  0.68030637  1
  H  H674  1  0.41681986  0.60310876  0.52915790  1
  H  H675  1  0.41332435  0.70385724  0.51852056  1
  C  C676  1  0.44520376  0.56922879  0.73914724  1
  C  C677  1  0.49004581  0.58282246  0.63466884  1
  C  C678  1  0.47848546  0.72348698  0.72332653  1
  H  H679  1  0.42302773  0.72919765  0.69253494  1
  C  C680  1  0.34994831  0.64559279  0.51258992  1
  O  O681  1  0.34013348  0.50450663  0.56214305  1
  N  N682  1  0.33930525  0.73726504  0.61552003  1
  H  H683  1  0.37435021  0.51078808  0.56853696  1
  O  O684  1  0.49438823  0.69125005  0.50662963  1
  H  H685  1  0.48099815  0.50085437  0.63688521  1
  C  C686  1  0.38873703  0.61136208  0.50672831  1
  C  C687  1  0.40483269  0.74209789  0.57145465  1
  C  C688  1  0.49159223  0.64324264  0.74760011  1
  H  H689  1  0.43484998  0.53090196  0.74617154  1
  H  H690  1  0.24963834  0.77543451  0.72235521  1
  C  C691  1  0.16686785  0.96616895  0.60196130  1
  O  O692  1  0.11790567  0.78797011  0.55093541  1
  H  H693  1  0.07812702  0.87021293  0.53388718  1
  O  O694  1  0.21317165  0.82085132  0.66512196  1
  C  C695  1  0.19486638  0.89589994  0.63267722  1
  O  O696  1  0.13451046  0.83815818  0.65611751  1
  C  C697  1  0.17872067  0.84839181  0.65389412  1
  C  C698  1  0.15383108  0.92146902  0.61947107  1
  H  H699  1  0.11584201  0.90664834  0.61972967  1
  C  C700  1  0.24522854  0.90659172  0.63066642  1
  O  O701  1  0.04548676  0.95685276  0.52498666  1
  C  C702  1  0.21556275  0.98017379  0.59499338  1
  C  C703  1  0.10566533  0.77098823  0.52036907  1
  C  C704  1  0.21524555  0.89589193  0.50840244  1
  C  C705  1  0.07827119  0.86341262  0.50304842  1
  H  H706  1  0.22591018  0.90708831  0.53750470  1
  O  O707  1  0.23813306  0.76475911  0.52627300  1
  C  C708  1  0.24238660  0.80942187  0.53033757  1
  O  O709  1  0.07671556  0.97890348  0.59771006  1
  C  C710  1  0.11970739  0.99573991  0.59008318  1
  Zn  Zn711  1  0.00473004  0.99217825  0.57016058  1
  C  C712  1  0.30971092  0.81360312  0.74120624  1
  C  C713  1  0.39254196  0.95835492  0.61226525  1
  O  O714  1  0.45223840  0.75402603  0.69742864  1
  C  C715  1  0.25611891  0.95399488  0.61287925  1
  N  N716  1  0.38257059  0.83223121  0.70209174  1
  C  C717  1  0.35723740  0.83444478  0.73481759  1
  C  C718  1  0.34066683  0.95011915  0.61951671  1
  O  O719  1  0.26217599  0.82841481  0.55791799  1
  H  H720  1  0.46270899  0.90198900  0.56816416  1
  H  H721  1  0.27314857  0.87941382  0.64320657  1
  C  C722  1  0.47731653  0.95102766  0.70969308  1
  H  H723  1  0.45390299  0.83303285  0.73366000  1
  H  H724  1  0.49876509  0.94730176  0.61246581  1
  C  C725  1  0.47294418  0.86348055  0.56981841  1
  C  C726  1  0.43566867  0.82826812  0.56595947  1
  H  H727  1  0.38716167  0.80140569  0.65195538  1
  N  N728  1  0.38168627  0.75700945  0.60443296  1
  N  N729  1  0.30349917  0.97006148  0.60305639  1
  H  H730  1  0.40630112  0.95899925  0.74004538  1
  C  C731  1  0.49817497  0.75745175  0.57476387  1
  N  N732  1  0.28720398  0.78424001  0.71862170  1
  O  O733  1  0.28725736  0.96890952  0.71097285  1
  H  H734  1  0.39559357  0.84062191  0.56216852  1
  C  C735  1  0.42468394  0.94748752  0.64392464  1
  Zn  Zn736  1  0.30580763  0.76108115  0.66318998  1
  C  C737  1  0.44903060  0.77582063  0.56962925  1
  C  C738  1  0.42419917  0.95192516  0.71228440  1
  C  C739  1  0.39901922  0.95121046  0.67893082  1
  N  N740  1  0.38333176  0.99864325  0.55429847  1
  H  H741  1  0.35834576  0.95569793  0.68072663  1
  N  N742  1  0.41231130  0.97760193  0.57912769  1
  H  H743  1  0.32370456  0.92520109  0.64092354  1
  N  N744  1  0.36225655  0.81261769  0.67089377  1
  C  C745  1  0.47837519  0.94376697  0.64118986  1
  C  C746  1  0.30132952  0.99766452  0.73568593  1
  O  O747  1  0.34360628  0.99824241  0.74696365  1
  C  C748  1  0.09658285  0.53483507  0.96641249  1
  H  H749  1  0.13531679  0.53991001  0.97440393  1
  H  H750  1  0.11578328  0.52885497  0.90984929  1
  C  C751  1  0.00350378  0.52903570  0.98166976  1
  C  C752  1  0.08559039  0.52473458  0.92955484  1
  O  O753  1  0.23789090  0.73654387  0.86731940  1
  O  O754  1  0.14477193  0.52047646  0.77165248  1
  C  C755  1  0.05546254  0.53171469  0.99271196  1
  C  C756  1  0.03565061  0.51125831  0.91707992  1
  O  O757  1  0.31524815  0.64788621  0.95715788  1
  O  O758  1  0.34394507  0.68657327  0.90957253  1
  H  H759  1  0.37022996  0.55506664  0.92918070  1
  H  H760  1  0.40277516  0.61086272  0.82631856  1
  C  C761  1  0.37177439  0.62059678  0.80733827  1
  C  C762  1  0.36302176  0.66860163  0.79406442  1
  O  O763  1  0.43178105  0.69639114  0.83353601  1
  C  C764  1  0.44744812  0.53284434  0.92291785  1
  C  C765  1  0.39996786  0.70781928  0.80882586  1
  O  O766  1  0.42044439  0.61346902  0.89873688  1
  C  C767  1  0.39874319  0.52392447  0.93330675  1
  C  C768  1  0.45591474  0.58435051  0.90461550  1
  C  C769  1  0.33727523  0.58445858  0.79742065  1
  Zn  Zn770  1  0.42224353  0.69673443  0.89342169  1
  C  C771  1  0.32511978  0.68561546  0.94223857  1
  C  C772  1  0.32560816  0.68370594  0.77096273  1
  C  C773  1  0.29799651  0.59523911  0.77483320  1
  C  C774  1  0.34285158  0.52865466  0.80856375  1
  O  O775  1  0.37277354  0.51643807  0.83221262  1
  C  C776  1  0.48437061  0.59221503  0.75603616  1
  H  H777  1  0.33870142  0.52139009  0.98498438  1
  H  H778  1  0.32416819  0.72199215  0.76252544  1
  C  C779  1  0.29186247  0.64495608  0.75979240  1
  H  H780  1  0.26999900  0.56845860  0.76453968  1
  O  O781  1  0.49773840  0.59594559  0.89783417  1
  O  O782  1  0.39783353  0.74947800  0.79711642  1
  C  C783  1  0.30862059  0.74375635  0.99597276  1
  C  C784  1  0.31879748  0.73802169  0.95927737  1
  N  N785  1  0.47534681  0.74965970  0.91655619  1
  C  C786  1  0.22613465  0.78022127  0.87076556  1
  H  H787  1  0.20137585  0.87692345  0.86261879  1
  O  O788  1  0.19578544  0.98503102  0.80369869  1
  C  C789  1  0.21268044  0.94526309  0.80625129  1
  O  O790  1  0.19999622  0.79891336  0.89562248  1
  C  C791  1  0.22417927  0.86307841  0.83882425  1
  C  C792  1  0.23255905  0.89566084  0.80650149  1
  C  C793  1  0.24252463  0.81513934  0.83532036  1
  C  C794  1  0.43880305  0.85512245  0.75754970  1
  C  C795  1  0.43433263  0.98869405  0.85678992  1
  H  H796  1  0.42286407  0.99290991  0.82660651  1
  C  C797  1  0.36388955  0.87916080  0.79811768  1
  C  C798  1  0.31734216  0.83678300  0.98877066  1
  H  H799  1  0.38398647  0.91311616  0.85221038  1
  C  C800  1  0.25660363  0.87702514  0.77284944  1
  C  C801  1  0.26920185  0.79570265  0.80548473  1
  H  H802  1  0.27975977  0.75432049  0.80374297  1
  H  H803  1  0.26343079  0.90367988  0.75053258  1
  C  C804  1  0.27798784  0.82993844  0.77520983  1
  C  C805  1  0.46866465  0.99301561  0.93387393  1
  C  C806  1  0.32927304  0.82846188  0.95192337  1
  N  N807  1  0.47295835  0.85954831  0.98918650  1
  O  O808  1  0.34775550  0.91340695  0.94538879  1
  C  C809  1  0.44834308  0.89871478  0.81693395  1
  O  O810  1  0.35070153  0.87408557  0.89159237  1
  C  C811  1  0.38628735  0.85944552  0.76481271  1
  C  C812  1  0.32794734  0.78108837  0.93717235  1
  H  H813  1  0.33238580  0.77928413  0.90594609  1
  H  H814  1  0.32423889  0.88085534  0.80418405  1
  C  C815  1  0.39545063  0.90217398  0.82324872  1
  O  O816  1  0.42937579  0.76161138  0.91868170  1
  Zn  Zn817  1  0.45979054  0.81907247  0.94259243  1
  C  C818  1  0.46946001  0.87795073  0.78339770  1
  C  C819  1  0.34451570  0.87569999  0.92593841  1
  H  H820  1  0.47428402  0.98699035  0.96451465  1
  C  C821  1  0.46856902  0.94984396  0.87064274  1
  C  C822  1  0.48667847  0.95822151  0.90865045  1
  N  N823  1  0.48112089  0.91328989  0.84593510  1
  H  H824  1  0.46785929  0.82408291  0.83621361  1
  H  H825  1  0.41706909  0.93971581  0.99489407  1
  H  H826  1  0.31663702  0.87949810  0.99502276  1
  N  N827  1  0.63501996  0.10435262  0.16122110  1
  C  C828  1  0.64548883  0.05283072  0.15598267  1
  C  C829  1  0.54986366  0.08791089  0.19155793  1
  C  C830  1  0.66826208  0.13920033  0.14765902  1
  C  C831  1  0.59439255  0.11686572  0.18424932  1
  C  C832  1  0.60271390  0.16118120  0.20515501  1
  C  C833  1  0.65085169  0.18673435  0.13097277  1
  H  H834  1  0.54757143  0.04977205  0.18141672  1
  H  H835  1  0.61129614  0.19788280  0.13530797  1
  H  H836  1  0.63687160  0.18286886  0.19917163  1
  C  C837  1  0.70385629  0.08451847  0.02713270  1
  H  H838  1  0.68223896  0.06888859  0.10117828  1
  C  C839  1  0.67432182  0.03887407  0.12334396  1
  C  C840  1  0.68263616  0.21520067  0.11081645  1
  C  C841  1  0.51066918  0.10750685  0.21351586  1
  C  C842  1  0.64729437  0.09129565  0.01472783  1
  C  C843  1  0.71750179  0.03635287  0.03406397  1
  O  O844  1  0.62425996  0.05384237  0.00613457  1
  H  H845  1  0.62077841  0.02556956  0.21274805  1
  C  C846  1  0.63547024  0.01731432  0.18424196  1
  H  H847  1  0.68991940  0.00622870  0.02780843  1
  C  C848  1  0.56938518  0.18189386  0.23060898  1
  C  C849  1  0.51924955  0.15274518  0.23357020  1
  C  C850  1  0.71785226  0.12241703  0.14362237  1
  H  H851  1  0.72431448  0.16183058  0.02644474  1
  C  C852  1  0.73539479  0.12247173  0.03373531  1
  C  C853  1  0.73058573  0.19080696  0.10327917  1
  H  H854  1  0.72913288  0.08605895  0.15735476  1
  O  O855  1  0.50473104  0.22681468  0.02849045  1
  O  O856  1  0.57717578  0.22048515  0.24833602  1
  O  O857  1  0.63053474  0.13294625  0.01191612  1
  C  C858  1  0.75010043  0.14822012  0.12117312  1
  C  C859  1  0.76082344  0.21538786  0.07497020  1
  C  C860  1  0.76597887  0.02507524  0.04610398  1
  C  C861  1  0.78380504  0.11092118  0.04760711  1
  C  C862  1  0.80070466  0.06241881  0.05398190  1
  C  C863  1  0.80623296  0.19411231  0.05843303  1
  N  N864  1  0.81664170  0.14873366  0.05430584  1
  H  H865  1  0.78733893  0.13379171  0.11508810  1
  C  C866  1  0.94394593  0.21795029  0.02460605  1
  H  H867  1  0.93945399  0.01976328  0.07568417  1
  H  H868  1  0.84399472  0.20917853  0.05449207  1
  H  H869  1  0.83845978  0.05320611  0.06412295  1
  C  C870  1  0.98323900  0.21264642  0.04939311  1
  C  C871  1  0.82455782  0.00992007  0.22427967  1
  O  O872  1  0.84440029  0.05034277  0.22150484  1
  C  C873  1  0.99690706  0.04362023  0.17394691  1
  H  H874  1  0.99698715  0.05687883  0.20202849  1
  H  H875  1  0.91758064  0.24713758  0.02532913  1
  C  C876  1  0.96535010  0.00258293  0.16593748  1
  H  H877  1  0.93828322  0.01891856  0.00601614  1
  C  C878  1  0.98721160  0.24894437  0.08206322  1
  H  H879  1  0.67197066  0.25173957  0.09724930  1
  C  C880  1  0.70302950  0.45335366  0.08768135  1
  O  O881  1  0.68406970  0.41187595  0.08954587  1
  O  O882  1  0.68422946  0.49237105  0.09853738  1
  C  C883  1  0.99525022  0.46415173  0.11048714  1
  N  N884  1  0.75429144  0.26222120  0.06133632  1
  H  H885  1  0.98292398  0.46941791  0.14018238  1
  H  H886  1  0.75920401  0.38503207  0.05398644  1
  C  C887  1  0.75719034  0.45865723  0.07160536  1
  H  H888  1  0.82425795  0.34291582  0.21539958  1
  C  C889  1  0.95387284  0.34456336  0.20930531  1
  H  H890  1  0.98580927  0.34540694  0.22873294  1
  C  C891  1  0.85149578  0.46959731  0.03949845  1
  O  O892  1  0.78779782  0.33995119  0.14778888  1
  C  C893  1  0.86236757  0.34495812  0.20277605  1
  C  C894  1  0.82882027  0.34515508  0.13573622  1
  C  C895  1  0.90627020  0.34415241  0.22341330  1
  C  C896  1  0.83062150  0.41957739  0.03942645  1
  C  C897  1  0.78067748  0.41914306  0.05424067  1
  O  O898  1  0.96095267  0.28646963  0.08193332  1
  N  N899  1  0.85214771  0.38063199  0.01950239  1
  C  C900  1  0.96109325  0.34234060  0.17066328  1
  C  C901  1  0.87307476  0.34440045  0.16469037  1
  N  N902  1  0.76209232  0.29810534  0.04030378  1
  O  O903  1  0.83712785  0.34516345  0.10124723  1
  H  H904  1  0.88622257  0.47104373  0.02404469  1
  H  H905  1  0.92493546  0.35078354  0.11553839  1
  C  C906  1  0.91960792  0.34503898  0.14656354  1
  H  H907  1  0.92148773  0.41721506  0.01775792  1
  Zn  Zn908  1  0.81574755  0.31857246  0.00474736  1
  C  C909  1  0.89953722  0.38429993  0.00955180  1
  H  H910  1  0.63734721  0.05287885  0.34700681  1
  C  C911  1  0.60246122  0.04167067  0.40324272  1
  C  C912  1  0.55222032  0.06231249  0.39299979  1
  C  C913  1  0.64105372  0.03872645  0.37643218  1
  O  O914  1  0.54631587  0.08626157  0.36576730  1
  H  H915  1  0.71580801  0.17515490  0.33601257  1
  O  O916  1  0.66577627  0.16622034  0.39830445  1
  C  C917  1  0.72894564  0.21293160  0.34119881  1
  H  H918  1  0.57688916  0.03111952  0.46003116  1
  C  C919  1  0.60825457  0.02290680  0.44026224  1
  H  H920  1  0.50745777  0.06489458  0.43822122  1
  C  C921  1  0.68993265  0.20242240  0.40818217  1
  C  C922  1  0.71984941  0.23409743  0.37703006  1
  Zn  Zn923  1  0.51152071  0.24635023  0.28767949  1
  O  O924  1  0.71306167  0.02351547  0.32263710  1
  C  C925  1  0.72383184  0.00803323  0.35318765  1
  O  O926  1  0.69202987  0.21557072  0.44097969  1
  C  C927  1  0.68432265  0.01475222  0.38561977  1
  O  O928  1  0.73929558  0.18363102  0.26432567  1
  O  O929  1  0.50395507  0.05067269  0.41318039  1
  H  H930  1  0.56395131  0.13090233  0.49456777  1
  C  C931  1  0.75496448  0.23869028  0.31414099  1
  C  C932  1  0.76255045  0.22078211  0.27127794  1
  C  C933  1  0.93107792  0.00108980  0.33702770  1
  O  O934  1  0.94414619  0.03950988  0.32207118  1
  H  H935  1  0.87771585  0.03381455  0.28239974  1
  O  O936  1  0.79192306  0.24126682  0.25112306  1
  O  O937  1  0.51356626  0.47191657  0.42951011  1
  C  C938  1  0.50922252  0.43445013  0.40857029  1
  C  C939  1  0.70027643  0.47382107  0.29399785  1
  H  H940  1  0.64944259  0.48751553  0.41646702  1
  O  O941  1  0.56262185  0.30514400  0.30338800  1
  O  O942  1  0.64280579  0.29560745  0.31027815  1
  C  C943  1  0.60267267  0.31569324  0.31900801  1
  C  C944  1  0.59776169  0.35388114  0.35014786  1
  C  C945  1  0.55268697  0.37389407  0.36467798  1
  C  C946  1  0.64738338  0.40761057  0.38938998  1
  N  N947  1  0.69070214  0.43229565  0.39758008  1
  C  C948  1  0.60193892  0.42880741  0.40302655  1
  C  C949  1  0.55628969  0.41113129  0.39154482  1
  C  C950  1  0.64385015  0.36577398  0.36314027  1
  H  H951  1  0.67803503  0.34891843  0.35253285  1
  H  H952  1  0.60263252  0.45989868  0.42495037  1
  C  C953  1  0.68915797  0.47516968  0.41308898  1
  O  O954  1  0.67582572  0.43662993  0.29831657  1
  H  H955  1  0.51706899  0.35919027  0.35633738  1
  H  H956  1  0.62045928  0.48083174  0.34354998  1
  H  H957  1  0.73827051  0.28865161  0.41623995  1
  C  C958  1  0.74257563  0.27636748  0.38698893  1
  O  O959  1  0.73980655  0.47615104  0.27667984  1
  O  O960  1  0.79016592  0.39133877  0.48908915  1
  N  N961  1  0.79590627  0.34748055  0.36723866  1
  N  N962  1  0.89361498  0.38944952  0.49412867  1
  H  H963  1  0.98877981  0.34657544  0.30713739  1
  C  C964  1  0.98219284  0.47593185  0.34227669  1
  N  N965  1  0.83521060  0.42400259  0.38365815  1
  O  O966  1  0.86539587  0.32051960  0.43691284  1
  C  C967  1  0.93246399  0.45992222  0.34668941  1
  C  C968  1  0.90011560  0.35005458  0.26522177  1
  H  H969  1  0.86063229  0.32152789  0.34110274  1
  C  C970  1  0.84306339  0.35183451  0.35550831  1
  C  C971  1  0.95648820  0.39505468  0.39356520  1
  N  N972  1  0.84314241  0.42008063  0.47535951  1
  H  H973  1  0.79076397  0.31050690  0.29871991  1
  C  C974  1  0.77678875  0.28553883  0.32041453  1
  O  O975  1  0.85745378  0.35170783  0.27550057  1
  Zn  Zn976  1  0.83721570  0.46195144  0.42990249  1
  C  C977  1  0.77224664  0.30184473  0.35825400  1
  H  H978  1  0.85875655  0.33923591  0.45893786  1
  C  C979  1  0.86857334  0.39548872  0.36720716  1
  O  O980  1  0.93901120  0.34847531  0.28406870  1
  Zn  Zn981  1  0.76189514  0.40728782  0.38531364  1
  H  H982  1  0.94617443  0.36748100  0.41482031  1
  H  H983  1  0.90646753  0.47989252  0.32683840  1
  C  C984  1  0.92132402  0.41624952  0.36799869  1
  H  H985  1  0.83733558  0.32413857  0.42064969  1
  N  N986  1  0.76989269  0.47419440  0.40647877  1
  H  H987  1  0.59209519  0.04429433  0.57571948  1
  H  H988  1  0.55434371  0.20580152  0.72027329  1
  C  C989  1  0.54837402  0.00682547  0.53210255  1
  N  N990  1  0.61323002  0.09301904  0.52244827  1
  C  C991  1  0.53838759  0.05188421  0.51051365  1
  C  C992  1  0.64297450  0.13403462  0.52381706  1
  H  H993  1  0.58908056  0.19912439  0.53026030  1
  C  C994  1  0.62748870  0.18514854  0.52797899  1
  C  C995  1  0.71518195  0.20841823  0.52395206  1
  C  C996  1  0.57697613  0.00847799  0.56662924  1
  C  C997  1  0.66499943  0.22005279  0.52861579  1
  O  O998  1  0.74414046  0.22968574  0.69689950  1
  C  C999  1  0.56978788  0.09572742  0.50977087  1
  C  C1000  1  0.69515976  0.12371630  0.52252127  1
  C  C1001  1  0.73029742  0.15985727  0.52065437  1
  C  C1002  1  0.53372263  0.24019650  0.72711557  1
  H  H1003  1  0.70760015  0.08507639  0.52177137  1
  H  H1004  1  0.74121653  0.24089693  0.52331936  1
  O  O1005  1  0.61011682  0.23868447  0.67230591  1
  H  H1006  1  0.66782098  0.02481742  0.74309317  1
  O  O1007  1  0.99763518  0.06987016  0.56894743  1
  C  C1008  1  0.96690748  0.09762275  0.55254126  1
  H  H1009  1  0.80938472  0.06788431  0.63171707  1
  O  O1010  1  0.84296313  0.11220705  0.64175352  1
  O  O1011  1  0.80090345  0.16749212  0.61186640  1
  C  C1012  1  0.93321477  0.18782420  0.54661049  1
  C  C1013  1  0.83685280  0.15543655  0.63034811  1
  C  C1014  1  0.87708844  0.19036707  0.64639699  1
  C  C1015  1  0.90313395  0.17161678  0.67587267  1
  H  H1016  1  0.89677861  0.13286381  0.68672833  1
  C  C1017  1  0.93903363  0.20354878  0.69302751  1
  O  O1018  1  0.78347416  0.03434252  0.62861338  1
  C  C1019  1  0.96775545  0.15571041  0.55977014  1
  H  H1020  1  0.89808035  0.17645107  0.53202007  1
  H  H1021  1  0.86734958  0.00031283  0.59838478  1
  C  C1022  1  0.94417355  0.23976284  0.54922231  1
  C  C1023  1  0.95881364  0.18803929  0.73208691  1
  C  C1024  1  0.88432741  0.23873852  0.63415434  1
  O  O1025  1  0.93839805  0.07977785  0.53139525  1
  O  O1026  1  0.95111709  0.14702395  0.74252592  1
  O  O1027  1  0.79549661  0.10134313  0.52523802  1
  C  C1028  1  0.78715317  0.14445456  0.51814652  1
  O  O1029  1  0.98732628  0.21958713  0.74980233  1
  O  O1030  1  0.81775550  0.17462317  0.50850630  1
  H  H1031  1  0.62869449  0.49698472  0.64699801  1
  O  O1032  1  0.73277861  0.49448255  0.74166337  1
  C  C1033  1  0.66436385  0.48674480  0.63710349  1
  C  C1034  1  0.59190689  0.27992721  0.68016969  1
  C  C1035  1  0.54647029  0.28282850  0.70826083  1
  O  O1036  1  0.60835284  0.31857776  0.66857114  1
  C  C1037  1  0.51995208  0.32542737  0.71516426  1
  O  O1038  1  0.57586160  0.46766465  0.72115931  1
  H  H1039  1  0.64576517  0.40909846  0.63229272  1
  C  C1040  1  0.67622892  0.43788075  0.63081262  1
  H  H1041  1  0.72672695  0.39946791  0.54999898  1
  C  C1042  1  0.72485802  0.42319620  0.61817207  1
  H  H1043  1  0.52906716  0.35983456  0.69990027  1
  H  H1044  1  0.71513194  0.28047954  0.63732623  1
  N  N1045  1  0.73675704  0.37331594  0.61956976  1
  C  C1046  1  0.73453786  0.30006440  0.65947849  1
  C  C1047  1  0.55098798  0.47037530  0.69163249  1
  C  C1048  1  0.73940899  0.35261253  0.65655724  1
  C  C1049  1  0.74778585  0.27387578  0.69272529  1
  O  O1050  1  0.52948930  0.43596279  0.67779986  1
  O  O1051  1  0.60025912  0.28022912  0.53104939  1
  C  C1052  1  0.64672234  0.27493111  0.53228108  1
  O  O1053  1  0.67578322  0.31089061  0.53518387  1
  H  H1054  1  0.96806902  0.27591337  0.70192522  1
  C  C1055  1  0.98274347  0.25976370  0.57318904  1
  H  H1056  1  0.86047589  0.25367681  0.61186832  1
  C  C1057  1  0.76017704  0.37570932  0.55422422  1
  H  H1058  1  0.98815399  0.29812229  0.57857910  1
  C  C1059  1  0.96644279  0.34037299  0.65727902  1
  N  N1060  1  0.91806501  0.32291200  0.64832531  1
  H  H1061  1  0.88264247  0.30830848  0.57653329  1
  Zn  Zn1062  1  0.87550454  0.46792236  0.50873101  1
  H  H1063  1  0.79039737  0.38629319  0.74106162  1
  C  C1064  1  0.94536172  0.25038378  0.68387484  1
  N  N1065  1  0.91108291  0.27057695  0.53220779  1
  H  H1066  1  0.96726820  0.32067434  0.52198356  1
  C  C1067  1  0.76662247  0.35475732  0.59012588  1
  C  C1068  1  0.75618379  0.38680307  0.68474728  1
  H  H1069  1  0.75978731  0.42713371  0.67861836  1
  H  H1070  1  0.91355582  0.33817888  0.62181183  1
  H  H1071  1  0.83547978  0.45159600  0.74900357  1
  C  C1072  1  0.83844168  0.34964016  0.53639895  1
  O  O1073  1  0.84037640  0.44558472  0.72255680  1
  C  C1074  1  0.79456208  0.37350363  0.52355845  1
  C  C1075  1  0.84561714  0.32364496  0.57148192  1
  C  C1076  1  0.76286091  0.46099939  0.60914586  1
  C  C1077  1  0.94662560  0.48562720  0.72631960  1
  C  C1078  1  0.88649997  0.35079150  0.51651540  1
  H  H1079  1  0.90604171  0.47628251  0.73674873  1
  H  H1080  1  0.79835545  0.45533319  0.59635087  1
  C  C1081  1  0.92604412  0.31438607  0.52531418  1
  C  C1082  1  0.98830325  0.45287172  0.73307295  1
  C  C1083  1  0.77477035  0.36492517  0.71711699  1
  H  H1084  1  0.82021821  0.31566108  0.62860651  1
  H  H1085  1  0.83320276  0.47686335  0.71485242  1
  C  C1086  1  0.81116199  0.32751785  0.59998395  1
  C  C1087  1  0.91698216  0.26990344  0.65248846  1
  N  N1088  1  0.85708495  0.49605410  0.56018374  1
  C  C1089  1  0.77179164  0.31243127  0.71810289  1
  H  H1090  1  0.70392905  0.02042396  0.95851844  1
  C  C1091  1  0.74336105  0.02153217  0.95039646  1
  C  C1092  1  0.51117982  0.02166460  0.79484909  1
  H  H1093  1  0.57418256  0.03293467  0.75222616  1
  O  O1094  1  0.74775302  0.24655676  0.93875037  1
  H  H1095  1  0.51001768  0.06741059  0.84701593  1
  C  C1096  1  0.50049135  0.06528081  0.81563716  1
  O  O1097  1  0.75005859  0.16576215  0.95497044  1
  C  C1098  1  0.75191786  0.19853007  0.93191561  1
  H  H1099  1  0.75699143  0.10164165  0.89899699  1
  H  H1100  1  0.75808752  0.21576887  0.76311242  1
  H  H1101  1  0.75287573  0.09468419  0.97551583  1
  O  O1102  1  0.77724181  0.06193368  0.79178250  1
  O  O1103  1  0.75371289  0.03154090  0.84549965  1
  C  C1104  1  0.76393771  0.13304879  0.87953481  1
  C  C1105  1  0.76058468  0.18293141  0.89106095  1
  C  C1106  1  0.76687334  0.06532084  0.82463780  1
  C  C1107  1  0.77146672  0.12205666  0.84152572  1
  C  C1108  1  0.78167423  0.15850280  0.81548694  1
  H  H1109  1  0.79032612  0.15051412  0.78607314  1
  C  C1110  1  0.77046696  0.06383498  0.95838059  1
  C  C1111  1  0.94806628  0.09673023  0.90843978  1
  C  C1112  1  0.87530934  0.14687196  0.96196274  1
  C  C1113  1  0.84820898  0.11149070  0.95749427  1
  C  C1114  1  0.82152769  0.06551991  0.94855269  1
  O  O1115  1  0.89171863  0.16790147  0.88041602  1
  H  H1116  1  0.90861345  0.10048572  0.91452793  1
  C  C1117  1  0.94183277  0.17150518  0.87187020  1
  H  H1118  1  0.88274301  0.20370907  0.87995036  1
  O  O1119  1  0.95581055  0.20608068  0.85156571  1
  C  C1120  1  0.97268227  0.13226684  0.88741674  1
  N  N1121  1  0.90343441  0.18843384  0.96555749  1
  C  C1122  1  0.84726983  0.02702141  0.92911419  1
  H  H1123  1  0.88815206  0.03347522  0.92497293  1
  N  N1124  1  0.95401524  0.02571038  0.94924972  1
  C  C1125  1  0.97663522  0.05796281  0.92528103  1
  C  C1126  1  0.97863437  0.14743814  0.99108743  1
  H  H1127  1  0.97703088  0.11897030  0.96842834  1
  C  C1128  1  0.77633969  0.20952024  0.82853029  1
  H  H1129  1  0.99016665  0.02227176  0.84820205  1
  O  O1130  1  0.96470093  0.01476476  0.78993563  1
  C  C1131  1  0.76528550  0.22245707  0.86592122  1
  C  C1132  1  0.93870525  0.18278014  0.99467137  1
  N  N1133  1  0.79518584  0.24842320  0.80617493  1
  C  C1134  1  0.78184493  0.24891025  0.77140369  1
  C  C1135  1  0.50948498  0.40673767  0.93444541  1
  C  C1136  1  0.51198616  0.37138802  0.83952906  1
  Zn  Zn1137  1  0.54807921  0.45235818  0.77667763  1
  O  O1138  1  0.54295775  0.33957098  0.84115051  1
  O  O1139  1  0.51704729  0.41469820  0.82488313  1
  O  O1140  1  0.55343232  0.41808601  0.93080761  1
  H  H1141  1  0.71870331  0.43683162  0.78367556  1
  O  O1142  1  0.61392797  0.48701794  0.78861873  1
  O  O1143  1  0.72715068  0.42193453  0.80658349  1
  O  O1144  1  0.86188552  0.39214962  0.89561444  1
  H  H1145  1  0.97802193  0.41649013  0.95786616  1
  Zn  Zn1146  1  0.87090721  0.25471079  0.95073917  1
  H  H1147  1  0.76392154  0.26208045  0.87326201  1
  N  N1148  1  0.95694794  0.26969045  0.76502443  1
  N  N1149  1  0.84320173  0.28491336  0.88058586  1
  O  O1150  1  0.76532882  0.46493446  0.96018497  1
  C  C1151  1  0.91891633  0.34206998  0.98783513  1
  N  N1152  1  0.88374613  0.30948641  0.98769588  1
  N  N1153  1  0.83328535  0.47732413  0.79959201  1
  C  C1154  1  0.99773178  0.38220645  0.96034499  1
  H  H1155  1  0.98411871  0.25534752  0.97934469  1
  C  C1156  1  0.99954854  0.29130300  0.97146276  1
  C  C1157  1  0.90939239  0.46697591  0.88160337  1
  N  N1158  1  0.88331210  0.27500769  0.89593333  1
  N  N1159  1  0.93959089  0.44061581  0.85667107  1
  N  N1160  1  0.83799314  0.43371821  0.80535332  1
  N  N1161  1  0.91001645  0.33395027  0.81127458  1
  Zn  Zn1162  1  0.97828046  0.30730206  0.81524421  1
  C  C1163  1  0.83294047  0.46613877  0.92044747  1
  C  C1164  1  0.79379092  0.44222654  0.94175017  1
  C  C1165  1  0.98704753  0.46332410  0.85769865  1
  N  N1166  1  0.83218960  0.32152320  0.77126569  1
  O  O1167  1  0.78620033  0.38889828  0.93863890  1
  H  H1168  1  0.80950223  0.38218985  0.91846315  1
  N  N1169  1  0.79958060  0.26830923  0.95915371  1
  Zn  Zn1170  1  0.90740577  0.40099938  0.81462370  1
  H  H1171  1  0.82514593  0.35930318  0.77595737  1
  C  C1172  1  0.98348972  0.40533731  0.75457850  1
  Zn  Zn1173  1  0.90576071  0.32329396  0.75650328  1
  H  H1174  1  0.75817132  0.43591220  0.81293447  1
  N  N1175  1  0.93773698  0.38912689  0.76441564  1
  C  C1176  1  0.97257364  0.33828887  0.97261519  1
  C  C1177  1  0.86715860  0.43681562  0.89709222  1
  Zn  Zn1178  1  0.85122902  0.30318728  0.82533620  1
  C  C1179  1  0.79390657  0.29368412  0.75217554  1
  O  O1180  1  0.70410598  0.68318328  0.02650489  1
  O  O1181  1  0.69495099  0.60083517  0.03099569  1
  H  H1182  1  0.71174868  0.60958895  0.05356929  1
  C  C1183  1  0.69401274  0.64586349  0.01098907  1
  H  H1184  1  0.74879640  0.66270880  0.11227467  1
  N  N1185  1  0.74310426  0.72186926  0.15093129  1
  N  N1186  1  0.75959001  0.73640118  0.12136242  1
  O  O1187  1  0.75237449  0.63195658  0.09848816  1
  H  H1188  1  0.78273812  0.63408080  0.08261447  1
  H  H1189  1  0.76178716  0.54221536  0.08168369  1
  O  O1190  1  0.83365521  0.59963456  0.05865336  1
  C  C1191  1  0.85327065  0.56259968  0.04677365  1
  O  O1192  1  0.89309492  0.56086328  0.02966472  1
  C  C1193  1  0.82403694  0.50904209  0.05232415  1
  H  H1194  1  0.97278650  0.52630682  0.00255560  1
  C  C1195  1  0.77735780  0.50686169  0.06757174  1
  H  H1196  1  0.99808481  0.54249949  0.10024425  1
  O  O1197  1  0.58363706  0.85329777  0.09751228  1
  H  H1198  1  0.62936141  0.81311205  0.06349508  1
  C  C1199  1  0.55107665  0.87960553  0.11062832  1
  C  C1200  1  0.54885609  0.88376549  0.15359965  1
  H  H1201  1  0.61279712  0.84069439  0.16322996  1
  C  C1202  1  0.67987148  0.95447710  0.14880382  1
  C  C1203  1  0.58485329  0.86368241  0.17700541  1
  C  C1204  1  0.69241284  0.89812330  0.14101789  1
  C  C1205  1  0.69205516  0.88144728  0.10349936  1
  N  N1206  1  0.70908373  0.86740274  0.16653789  1
  C  C1207  1  0.58453372  0.87314985  0.21626808  1
  H  H1208  1  0.65247064  0.94316207  0.20682542  1
  C  C1209  1  0.66515019  0.80715256  0.04909414  1
  H  H1210  1  0.67759166  0.90048679  0.07862197  1
  H  H1211  1  0.71514207  0.97853685  0.09535598  1
  C  C1212  1  0.65439843  0.96818225  0.18149335  1
  N  N1213  1  0.71176967  0.83627141  0.10390344  1
  C  C1214  1  0.71191109  0.81770800  0.06758825  1
  Zn  Zn1215  1  0.71043609  0.87112993  0.22203249  1
  C  C1216  1  0.69183696  0.99059481  0.11993778  1
  C  C1217  1  0.66860514  0.79440363  0.01154275  1
  C  C1218  1  0.54551225  0.90401014  0.23010710  1
  N  N1219  1  0.62658046  0.86761828  0.23998765  1
  C  C1220  1  0.50817019  0.91188775  0.16685743  1
  C  C1221  1  0.51004302  0.92132589  0.20554125  1
  H  H1222  1  0.52560772  0.90063390  0.02151668  1
  O  O1223  1  0.52044329  0.90178529  0.09136509  1
  O  O1224  1  0.58113808  0.77351525  0.00955545  1
  H  H1225  1  0.62318386  0.92502792  0.01268992  1
  Zn  Zn1226  1  0.73632261  0.80094308  0.15536897  1
  O  O1227  1  0.74647740  0.93953256  0.04540752  1
  C  C1228  1  0.75862827  0.79462308  0.01267770  1
  C  C1229  1  0.83030707  0.92298896  0.24742798  1
  C  C1230  1  0.92899823  0.89221809  0.01852834  1
  C  C1231  1  0.90623892  0.91340381  0.14164275  1
  H  H1232  1  0.84647451  0.91372483  0.09869730  1
  C  C1233  1  0.84792653  0.85175778  0.18442217  1
  H  H1234  1  0.95766763  0.91587546  0.19263574  1
  C  C1235  1  0.92717449  0.89171267  0.05796364  1
  C  C1236  1  0.78153454  0.97438082  0.05419372  1
  C  C1237  1  0.93336739  0.93704424  0.07861848  1
  C  C1238  1  0.89661340  0.86649125  0.19778839  1
  O  O1239  1  0.82204005  0.96577608  0.06986070  1
  C  C1240  1  0.93724724  0.98307645  0.02115419  1
  H  H1241  1  0.76234010  0.90846181  0.05750794  1
  H  H1242  1  0.90672732  0.85093252  0.22442805  1
  C  C1243  1  0.93678315  0.98355597  0.05965881  1
  H  H1244  1  0.82553436  0.91786005  0.21677592  1
  C  C1245  1  0.81779705  0.82572041  0.21288367  1
  C  C1246  1  0.97395537  0.97210229  0.13299990  1
  H  H1247  1  0.79681985  0.81580827  0.06030677  1
  C  C1248  1  0.75948326  0.80915767  0.04817630  1
  C  C1249  1  0.85819249  0.89807605  0.12691464  1
  C  C1250  1  0.92436724  0.90015501  0.17836822  1
  C  C1251  1  0.82880428  0.86647107  0.14766877  1
  N  N1252  1  0.93831004  0.94008710  0.11827051  1
  H  H1253  1  0.92798289  0.85620698  0.07267420  1
  H  H1254  1  0.79145769  0.86086203  0.13770654  1
  N  N1255  1  0.76772821  0.82249554  0.20947815  1
  H  H1256  1  0.93517775  0.99376768  0.18490501  1
  H  H1257  1  0.91882956  0.85782121  0.00119837  1
  O  O1258  1  0.79180625  0.99291714  0.20347103  1
  O  O1259  1  0.85027182  0.80324778  0.00680090  1
  C  C1260  1  0.57695138  0.59995496  0.40504824  1
  N  N1261  1  0.59020860  0.55544990  0.38907250  1
  C  C1262  1  0.71419687  0.64368922  0.41729801  1
  C  C1263  1  0.62673633  0.55900269  0.36009076  1
  C  C1264  1  0.56731359  0.64047901  0.41859745  1
  H  H1265  1  0.64054995  0.64062773  0.36520282  1
  C  C1266  1  0.70152856  0.59371365  0.41986959  1
  H  H1267  1  0.68380541  0.66935272  0.41268040  1
  H  H1268  1  0.66274784  0.58151114  0.41875741  1
  C  C1269  1  0.65269906  0.60480426  0.35251769  1
  C  C1270  1  0.56160252  0.69058726  0.43266274  1
  O  O1271  1  0.70005920  0.69246273  0.33929369  1
  H  H1272  1  0.64363684  0.70227110  0.44821068  1
  C  C1273  1  0.60609852  0.71957452  0.44281180  1
  C  C1274  1  0.69240933  0.60519586  0.32853037  1
  C  C1275  1  0.72101980  0.65734460  0.32370791  1
  C  C1276  1  0.70957546  0.56241220  0.31020667  1
  C  C1277  1  0.67920260  0.52125162  0.31663250  1
  H  H1278  1  0.56186470  0.53112850  0.39405369  1
  C  C1279  1  0.63980637  0.51651967  0.33957615  1
  H  H1280  1  0.74295868  0.56406801  0.29131656  1
  C  C1281  1  0.73273563  0.74797964  0.45951303  1
  C  C1282  1  0.73906440  0.74585404  0.41976111  1
  C  C1283  1  0.74152511  0.55969528  0.41954162  1
  H  H1284  1  0.74346723  0.71613346  0.47729113  1
  C  C1285  1  0.73458043  0.50513569  0.41686805  1
  C  C1286  1  0.51124946  0.71159871  0.43116506  1
  O  O1287  1  0.75895957  0.65970846  0.30643200  1
  C  C1288  1  0.76461060  0.66094730  0.41266050  1
  N  N1289  1  0.77338779  0.71062506  0.40541927  1
  H  H1290  1  0.82487449  0.54578072  0.41081767  1
  C  C1291  1  0.79430650  0.57505167  0.41383705  1
  C  C1292  1  0.80417903  0.62486958  0.41221042  1
  C  C1293  1  0.95286891  0.59808133  0.42022091  1
  C  C1294  1  0.93786952  0.63933147  0.43830679  1
  H  H1295  1  0.84210935  0.63947774  0.41122109  1
  C  C1296  1  0.89447652  0.55085745  0.45380720  1
  C  C1297  1  0.92954611  0.55210612  0.42446698  1
  C  C1298  1  0.81813551  0.72854568  0.38938118  1
  H  H1299  1  0.95482171  0.67415267  0.43126615  1
  C  C1300  1  0.84998734  0.69663553  0.36838200  1
  H  H1301  1  0.83439800  0.66420945  0.35366807  1
  H  H1302  1  0.91797994  0.69140315  0.33862648  1
  C  C1303  1  0.89650684  0.71387940  0.35809349  1
  C  C1304  1  0.89697054  0.64016885  0.46588113  1
  C  C1305  1  0.87913484  0.59268952  0.47557965  1
  O  O1306  1  0.85777608  0.55194594  0.29893221  1
  C  C1307  1  0.87952375  0.57918289  0.31285444  1
  H  H1308  1  0.94316104  0.51943384  0.40914066  1
  C  C1309  1  0.99798861  0.60369895  0.39596117  1
  H  H1310  1  0.99374646  0.50483312  0.32137853  1
  N  N1311  1  0.87746316  0.50512642  0.46160697  1
  O  O1312  1  0.88689448  0.68150770  0.47935720  1
  H  H1313  1  0.84775788  0.58643548  0.49589454  1
  C  C1314  1  0.65278399  0.99616171  0.44543658  1
  C  C1315  1  0.59775951  0.76902750  0.44797394  1
  H  H1316  1  0.62886577  0.79255138  0.45604308  1
  H  H1317  1  0.58259867  0.77785948  0.38728843  1
  H  H1318  1  0.61260979  0.80407825  0.32361952  1
  C  C1319  1  0.58938699  0.81604422  0.38134828  1
  C  C1320  1  0.54752766  0.79036316  0.44510429  1
  N  N1321  1  0.54616933  0.84002179  0.43596988  1
  C  C1322  1  0.59963404  0.90369461  0.40436419  1
  C  C1323  1  0.62156752  0.91939017  0.37174448  1
  C  C1324  1  0.62467880  0.88128256  0.34303377  1
  C  C1325  1  0.58051261  0.85341298  0.40839577  1
  C  C1326  1  0.60868288  0.83099518  0.34653617  1
  C  C1327  1  0.70211379  0.82841030  0.44833316  1
  C  C1328  1  0.64481263  0.88956542  0.30352890  1
  C  C1329  1  0.68258997  0.87675026  0.46078027  1
  H  H1330  1  0.64020613  0.95656332  0.36887032  1
  N  N1331  1  0.69415143  0.90194041  0.29954045  1
  C  C1332  1  0.66926815  0.91776694  0.47014517  1
  H  H1333  1  0.59670054  0.93037763  0.42870026  1
  C  C1334  1  0.70728199  0.82673859  0.40768141  1
  H  H1335  1  0.69492997  0.85768329  0.38944758  1
  C  C1336  1  0.71588530  0.79221262  0.47495338  1
  C  C1337  1  0.61309979  0.87484006  0.27581141  1
  H  H1338  1  0.57229994  0.86637773  0.27971107  1
  H  H1339  1  0.51710063  0.92472964  0.39117492  1
  C  C1340  1  0.72621016  0.78432705  0.39307654  1
  C  C1341  1  0.50552535  0.87211086  0.44177944  1
  N  N1342  1  0.65606678  0.96577352  0.47946130  1
  H  H1343  1  0.73022597  0.77440028  0.36239328  1
  H  H1344  1  0.72817223  0.97141979  0.42330582  1
  C  C1345  1  0.69311506  0.99251845  0.41918380  1
  N  N1346  1  0.72480605  0.90088889  0.27271799  1
  H  H1347  1  0.54721099  0.92315350  0.25726474  1
  H  H1348  1  0.72504099  0.83227494  0.30697620  1
  O  O1349  1  0.73599979  0.80025665  0.31273928  1
  C  C1350  1  0.50326547  0.76065980  0.43996406  1
  H  H1351  1  0.62598427  0.96936050  0.49741476  1
  H  H1352  1  0.51520129  0.95771552  0.48817142  1
  C  C1353  1  0.83615576  0.82045381  0.25454242  1
  H  H1354  1  0.84226051  0.78280924  0.26485909  1
  H  H1355  1  0.89385886  0.82994435  0.40097102  1
  H  H1356  1  0.80723995  0.79971281  0.41877129  1
  C  C1357  1  0.88283426  0.97207541  0.32456527  1
  O  O1358  1  0.76202173  0.98774307  0.36296340  1
  C  C1359  1  0.83112726  0.97440487  0.25804700  1
  C  C1360  1  0.99332385  0.79302707  0.39988949  1
  H  H1361  1  0.76908724  0.80362258  0.30572423  1
  C  C1362  1  0.90914811  0.76368056  0.36814659  1
  C  C1363  1  0.96234441  0.78486901  0.36582665  1
  C  C1364  1  0.83326145  0.77576021  0.40293699  1
  Zn  Zn1365  1  0.80897984  0.94122249  0.30736371  1
  H  H1366  1  0.99157096  0.77704192  0.42934932  1
  O  O1367  1  0.95147667  0.98459342  0.36500923  1
  N  N1368  1  0.83246393  0.83575089  0.28890500  1
  O  O1369  1  0.86502201  0.89937404  0.37033576  1
  C  C1370  1  0.87926904  0.79423649  0.39129189  1
  N  N1371  1  0.97953725  0.81123376  0.33835811  1
  C  C1372  1  0.86596293  0.92884032  0.34553610  1
  C  C1373  1  0.83195879  0.87988621  0.27557397  1
  C  C1374  1  0.86281906  0.99576310  0.28887715  1
  C  C1375  1  0.55475101  0.60918434  0.67439774  1
  N  N1376  1  0.59009343  0.64761728  0.68434727  1
  C  C1377  1  0.56533869  0.56119849  0.68730792  1
  H  H1378  1  0.59494067  0.55695105  0.70968598  1
  C  C1379  1  0.60624625  0.66291805  0.56038957  1
  C  C1380  1  0.64964908  0.67908665  0.57946987  1
  N  N1381  1  0.67414575  0.65374561  0.60619187  1
  Zn  Zn1382  1  0.66605546  0.63708612  0.70594248  1
  C  C1383  1  0.67352388  0.60531973  0.60102177  1
  H  H1384  1  0.66092859  0.58498633  0.57670922  1
  C  C1385  1  0.57709682  0.69292201  0.67320499  1
  H  H1386  1  0.59367287  0.62554404  0.56738344  1
  C  C1387  1  0.69302832  0.58159880  0.63342489  1
  N  N1388  1  0.70770370  0.61109396  0.66192139  1
  C  C1389  1  0.70197006  0.52518460  0.63083860  1
  H  H1390  1  0.53892804  0.69507636  0.66310225  1
  Zn  Zn1391  1  0.71223891  0.68964806  0.65147141  1
  C  C1392  1  0.57845629  0.68871547  0.53499585  1
  N  N1393  1  0.65871397  0.71321686  0.69041212  1
  N  N1394  1  0.73559277  0.67926076  0.70572655  1
  C  C1395  1  0.53764057  0.52206023  0.67406937  1
  C  C1396  1  0.52932122  0.66516500  0.51706515  1
  H  H1397  1  0.50817037  0.65938713  0.63824257  1
  C  C1398  1  0.61356203  0.73134971  0.67824505  1
  C  C1399  1  0.66299337  0.73395909  0.57073882  1
  C  C1400  1  0.58837816  0.73942292  0.52862310  1
  O  O1401  1  0.52597218  0.61968109  0.51633022  1
  C  C1402  1  0.74847838  0.50785331  0.61841363  1
  Zn  Zn1403  1  0.70238891  0.73620205  0.73302648  1
  N  N1404  1  0.65750701  0.57170924  0.73661483  1
  C  C1405  1  0.51660723  0.62075918  0.64731621  1
  H  H1406  1  0.70803622  0.52023179  0.74396400  1
  H  H1407  1  0.50123728  0.71738547  0.57707399  1
  C  C1408  1  0.50200370  0.53303927  0.64717300  1
  O  O1409  1  0.51136655  0.74287445  0.74032288  1
  H  H1410  1  0.97248941  0.62068397  0.74428852  1
  H  H1411  1  0.75473964  0.50688443  0.72298232  1
  Zn  Zn1412  1  0.77810688  0.62007932  0.68445978  1
  N  N1413  1  0.81033219  0.55448836  0.70173406  1
  N  N1414  1  0.82076511  0.53262080  0.67335668  1
  Zn  Zn1415  1  0.80771892  0.56565515  0.60983353  1
  C  C1416  1  0.93394147  0.69646544  0.65041499  1
  N  N1417  1  0.79008294  0.68021459  0.65443493  1
  N  N1418  1  0.83331265  0.64028971  0.60146865  1
  N  N1419  1  0.83087045  0.68025428  0.61757689  1
  C  C1420  1  0.91844909  0.70946483  0.68855077  1
  C  C1421  1  0.92596733  0.68253960  0.72297062  1
  H  H1422  1  0.92321842  0.55179298  0.69866525  1
  Zn  Zn1423  1  0.79677589  0.72990378  0.69544055  1
  H  H1424  1  0.92552013  0.71724257  0.62644981  1
  C  C1425  1  0.96036884  0.65235214  0.65001449  1
  C  C1426  1  0.95477365  0.52801590  0.70445336  1
  H  H1427  1  0.97164337  0.64028922  0.62131061  1
  N  N1428  1  0.82384078  0.52758340  0.55863447  1
  C  C1429  1  0.97909837  0.63014908  0.68447855  1
  C  C1430  1  0.95845266  0.64249820  0.72021873  1
  H  H1431  1  0.91117263  0.69761689  0.74893234  1
  C  C1432  1  0.64118024  0.99129385  0.74302453  1
  O  O1433  1  0.69489211  0.75608274  0.58691708  1
  H  H1434  1  0.56200790  0.76228955  0.51371172  1
  C  C1435  1  0.63042212  0.76032584  0.54580491  1
  C  C1436  1  0.52170149  0.84463237  0.57979323  1
  H  H1437  1  0.60041287  0.96673945  0.61614811  1
  C  C1438  1  0.58288830  0.96664249  0.58867463  1
  H  H1439  1  0.52757385  0.77209446  0.67838335  1
  C  C1440  1  0.54203663  0.91869570  0.53675174  1
  H  H1441  1  0.57290412  0.78273891  0.58700504  1
  C  C1442  1  0.55584820  0.79925041  0.67138107  1
  C  C1443  1  0.60802056  0.78479654  0.67138725  1
  C  C1444  1  0.58106948  0.86429341  0.62755298  1
  C  C1445  1  0.63155409  0.85939502  0.63796442  1
  H  H1446  1  0.65687130  0.88269774  0.62173961  1
  C  C1447  1  0.64990874  0.82210495  0.66394595  1
  O  O1448  1  0.69290471  0.81999503  0.67487381  1
  C  C1449  1  0.71332603  0.93441279  0.74565043  1
  C  C1450  1  0.56613829  0.92044082  0.57287403  1
  N  N1451  1  0.55697098  0.87734117  0.59325181  1
  C  C1452  1  0.65897993  0.94033686  0.73737138  1
  H  H1453  1  0.68866390  0.81234290  0.57428259  1
  C  C1454  1  0.54331047  0.84166097  0.64983614  1
  O  O1455  1  0.67455413  0.83914679  0.55561886  1
  C  C1456  1  0.63580224  0.81354827  0.53886702  1
  C  C1457  1  0.55768818  0.95561914  0.73861030  1
  C  C1458  1  0.62875858  0.89917793  0.72832629  1
  C  C1459  1  0.53498209  0.79278521  0.58005842  1
  H  H1460  1  0.54493014  0.94568256  0.67604491  1
  C  C1461  1  0.53197110  0.96020951  0.51678630  1
  C  C1462  1  0.57796568  0.90757476  0.72875355  1
  H  H1463  1  0.64660500  0.86406351  0.72009635  1
  H  H1464  1  0.55461540  0.87668418  0.72004367  1
  H  H1465  1  0.53469224  0.88204602  0.52475853  1
  O  O1466  1  0.60649709  0.83127918  0.51711387  1
  H  H1467  1  0.74926505  0.80584303  0.70282636  1
  H  H1468  1  0.50252717  0.84988590  0.64438614  1
  H  H1469  1  0.70979948  0.79918994  0.50506295  1
  N  N1470  1  0.50710476  0.96764271  0.73913959  1
  C  C1471  1  0.50418986  0.94922181  0.67431514  1
  C  C1472  1  0.59143543  0.99703103  0.74648698  1
  C  C1473  1  0.81101183  0.99740130  0.64250006  1
  N  N1474  1  0.76531596  0.78596744  0.72467291  1
  C  C1475  1  0.92826357  0.93136265  0.61590676  1
  N  N1476  1  0.85585936  0.77032692  0.70605743  1
  O  O1477  1  0.95017761  0.89341579  0.62509430  1
  C  C1478  1  0.76101143  0.91767019  0.73217629  1
  H  H1479  1  0.75872162  0.97895886  0.68434374  1
  N  N1480  1  0.90719275  0.83021960  0.73627166  1
  C  C1481  1  0.79627758  0.96976243  0.67332837  1
  C  C1482  1  0.85561201  0.98236515  0.62445996  1
  H  H1483  1  0.89579947  0.88385277  0.67969634  1
  H  H1484  1  0.97521013  0.79756859  0.71798063  1
  C  C1485  1  0.88297538  0.94317728  0.63946826  1
  C  C1486  1  0.87025345  0.91560544  0.67097799  1
  Zn  Zn1487  1  0.82593884  0.82923409  0.73589507  1
  O  O1488  1  0.94138907  0.95490555  0.58642051  1
  C  C1489  1  0.90233865  0.76105746  0.69903297  1
  N  N1490  1  0.80564658  0.90004091  0.71809447  1
  C  C1491  1  0.93316306  0.79854310  0.71797237  1
  O  O1492  1  0.93806658  0.93306308  0.73990623  1
  C  C1493  1  0.82453553  0.92794910  0.68736206  1
  C  C1494  1  0.63470774  0.59133625  0.92584618  1
  C  C1495  1  0.61958589  0.54096395  0.90982244  1
  H  H1496  1  0.59571688  0.63066873  0.88225639  1
  Zn  Zn1497  1  0.62777699  0.54531520  0.82102524  1
  C  C1498  1  0.61869524  0.63359373  0.90705303  1
  O  O1499  1  0.59952461  0.53872407  0.87792915  1
  O  O1500  1  0.55274178  0.58933101  0.79900862  1
  C  C1501  1  0.63160515  0.68184242  0.92097790  1
  C  C1502  1  0.65711381  0.59614958  0.96084094  1
  C  C1503  1  0.65820949  0.68679499  0.95399972  1
  O  O1504  1  0.69771073  0.63766960  0.84883436  1
  O  O1505  1  0.70645084  0.55799426  0.84016639  1
  C  C1506  1  0.66955937  0.64372355  0.97392261  1
  H  H1507  1  0.65845195  0.68964346  0.86372906  1
  H  H1508  1  0.67160241  0.72433882  0.96459555  1
  N  N1509  1  0.61457800  0.72541541  0.90075043  1
  H  H1510  1  0.66648790  0.56329570  0.97869697  1
  C  C1511  1  0.63186547  0.72305904  0.86581366  1
  N  N1512  1  0.64696038  0.58592812  0.76810437  1
  C  C1513  1  0.72275243  0.60128302  0.84104701  1
  H  H1514  1  0.62329105  0.50531744  0.76704510  1
  C  C1515  1  0.51762442  0.56662727  0.78486722  1
  N  N1516  1  0.65007117  0.74161082  0.80304469  1
  H  H1517  1  0.52428964  0.65934477  0.75849622  1
  O  O1518  1  0.62637801  0.50489252  0.92934241  1
  H  H1519  1  0.51970466  0.50008994  0.91550366  1
  O  O1520  1  0.50701381  0.52362927  0.79294341  1
  H  H1521  1  0.95636562  0.51491835  0.93345177  1
  H  H1522  1  0.75654154  0.68831130  0.82719492  1
  C  C1523  1  0.77509362  0.61130018  0.82576675  1
  C  C1524  1  0.78453185  0.66023750  0.81913908  1
  C  C1525  1  0.83506943  0.51761585  0.92200866  1
  O  O1526  1  0.89365888  0.50646688  0.79919040  1
  H  H1527  1  0.79980004  0.53657060  0.81892524  1
  C  C1528  1  0.80899836  0.57520598  0.81734022  1
  C  C1529  1  0.85383982  0.59102036  0.80135582  1
  C  C1530  1  0.87051756  0.63973933  0.79627005  1
  C  C1531  1  0.89516962  0.55294471  0.79370272  1
  C  C1532  1  0.83238282  0.67383125  0.80447677  1
  H  H1533  1  0.90794481  0.64739974  0.78516224  1
  C  C1534  1  0.88276546  0.60033175  0.90682213  1
  C  C1535  1  0.87388858  0.54132524  0.90468998  1
  C  C1536  1  0.91129783  0.51844392  0.88425497  1
  H  H1537  1  0.80891701  0.53621258  0.94111833  1
  H  H1538  1  0.94367305  0.53763221  0.87117775  1
  O  O1539  1  0.92930398  0.57070572  0.77636266  1
  O  O1540  1  0.84786563  0.62793855  0.91448698  1
  O  O1541  1  0.92570275  0.61609549  0.90211197  1
  N  N1542  1  0.83893740  0.72323707  0.79456544  1
  H  H1543  1  0.84362886  0.73607637  0.85068811  1
  C  C1544  1  0.99513953  0.52148040  0.94365761  1
  H  H1545  1  0.53717626  0.99279025  0.80864444  1
  H  H1546  1  0.52868492  0.75768165  0.82337295  1
  C  C1547  1  0.62767123  0.75915954  0.83786252  1
  Zn  Zn1548  1  0.55472190  0.77034308  0.92272225  1
  N  N1549  1  0.67944410  0.76823154  0.78179888  1
  O  O1550  1  0.61627923  0.78730871  0.95641552  1
  H  H1551  1  0.71297697  0.78172313  0.96078400  1
  H  H1552  1  0.59134877  0.93078804  0.84745840  1
  C  C1553  1  0.57576017  0.89307611  0.84616140  1
  C  C1554  1  0.67924458  0.93350616  0.97320893  1
  N  N1555  1  0.52911832  0.83714683  0.94040138  1
  H  H1556  1  0.65113787  0.86891944  0.84006552  1
  C  C1557  1  0.61205335  0.85627935  0.83822079  1
  C  C1558  1  0.55029378  0.86850746  0.96466266  1
  C  C1559  1  0.59565032  0.80463683  0.83576520  1
  C  C1560  1  0.61882295  0.88201776  0.91981063  1
  C  C1561  1  0.66500924  0.89745937  0.90927051  1
  C  C1562  1  0.60048591  0.89259784  0.95618408  1
  H  H1563  1  0.59660052  0.85574794  0.90170570  1
  C  C1564  1  0.63001841  0.92028313  0.98228407  1
  C  C1565  1  0.69551683  0.92639132  0.93546241  1
  H  H1566  1  0.67975594  0.88510892  0.88154404  1
  C  C1567  1  0.54293316  0.79507497  0.83034778  1
  C  C1568  1  0.71438833  0.78975362  0.99252426  1
  C  C1569  1  0.61871476  0.78137781  0.99123798  1
  Zn  Zn1570  1  0.72873256  0.82024163  0.77452891  1
  C  C1571  1  0.52389003  0.88157324  0.84651159  1
  H  H1572  1  0.51605766  0.93131718  0.91635444  1
  C  C1573  1  0.51617597  0.88012249  0.99504651  1
  N  N1574  1  0.73738010  0.89739982  0.76175852  1
  H  H1575  1  0.51003219  0.87191943  0.77827642  1
  C  C1576  1  0.50884340  0.83318446  0.83725461  1
  N  N1577  1  0.74381827  0.93774478  0.92453262  1
  H  H1578  1  0.70372254  0.94837935  0.99423469  1
  H  H1579  1  0.96768097  0.91432106  0.86125800  1
  O  O1580  1  0.94414081  0.77126401  0.86614432  1
  C  C1581  1  0.94288278  0.82149603  0.79757027  1
  O  O1582  1  0.81397788  0.77314325  0.95891773  1
  O  O1583  1  0.97774049  0.99065447  0.85124207  1
  N  N1584  1  0.92189670  0.90097664  0.93684520  1
  C  C1585  1  0.80882082  0.84500157  0.84373052  1
  C  C1586  1  0.93873186  0.84973941  0.76366271  1
  C  C1587  1  0.81328026  0.78531112  0.99152628  1
  H  H1588  1  0.78994971  0.85255517  0.93803109  1
  C  C1589  1  0.82035805  0.98430599  0.92128866  1
  C  C1590  1  0.81926426  0.80292653  0.81770540  1
  C  C1591  1  0.94435209  0.90609156  0.76552630  1
  C  C1592  1  0.96398202  0.98132222  0.81094999  1
  C  C1593  1  0.76992739  0.98157340  0.93267323  1
  C  C1594  1  0.79021777  0.86490297  0.90844304  1
  H  H1595  1  0.75579665  0.96211189  0.84834708  1
  C  C1596  1  0.76626527  0.92267987  0.85691125  1
  C  C1597  1  0.76520983  0.90873861  0.89538097  1
  H  H1598  1  0.96558230  0.98160707  0.90624299  1
  C  C1599  1  0.94968765  0.98237632  0.93541095  1
  H  H1600  1  0.79848942  0.90341284  0.80071808  1
  C  C1601  1  0.92923370  0.93832243  0.99864257  1
  N  N1602  1  0.79961988  0.81039160  0.78367184  1
  C  C1603  1  0.95142167  0.81483727  0.86642941  1
  O  O1604  1  0.96385972  0.83756171  0.89695769  1
  C  C1605  1  0.95300428  0.84620917  0.83036675  1
  C  C1606  1  0.96141488  0.89762490  0.83402169  1
  C  C1607  1  0.79157471  0.89334778  0.83079925  1
  N  N1608  1  0.91432184  0.86305489  0.91827216  1
  H  H1609  1  0.82741367  0.79546664  0.89329372  1
  C  C1610  1  0.95691350  0.92727185  0.80260131  1
  H  H1611  1  0.93938387  0.78120934  0.79583022  1
  C  C1612  1  0.83725155  0.75302833  0.82281602  1
  H  H1613  1  0.84277427  0.95258976  0.91306705  1
  C  C1614  1  0.92876546  0.94117335  0.95714888  1
  C  C1615  1  0.81083945  0.83261592  0.88290507  1
