# generated using pymatgen
data_CuH12(C5N)3
_symmetry_space_group_name_H-M   'P 1'
_cell_length_a   24.81592548
_cell_length_b   20.08963985
_cell_length_c   17.91986395
_cell_angle_alpha   90.00000000
_cell_angle_beta   90.00000000
_cell_angle_gamma   90.00000000
_symmetry_Int_Tables_number   1
_chemical_formula_structural   CuH12(C5N)3
_chemical_formula_sum   'Cu32 H384 C480 N96'
_cell_volume   8933.82283380
_cell_formula_units_Z   32
loop_
 _symmetry_equiv_pos_site_id
 _symmetry_equiv_pos_as_xyz
  1  'x, y, z'
loop_
 _atom_site_type_symbol
 _atom_site_label
 _atom_site_symmetry_multiplicity
 _atom_site_fract_x
 _atom_site_fract_y
 _atom_site_fract_z
 _atom_site_occupancy
  C  C0  1  0.10632042  0.32426549  0.17019259  1
  C  C1  1  0.07870195  0.30882829  0.10477293  1
  C  C2  1  0.16035722  0.34153647  0.17165497  1
  H  H3  1  0.05429684  0.18338820  0.16789813  1
  N  N4  1  0.19089598  0.33991065  0.10842317  1
  C  C5  1  0.11088044  0.30639155  0.03744774  1
  H  H6  1  0.11462763  0.43439186  0.17239761  1
  H  H7  1  0.30939317  0.45072252  0.06916276  1
  C  C8  1  0.16420603  0.32594876  0.04595727  1
  H  H9  1  0.08854185  0.31826838  0.22637835  1
  C  C10  1  0.04800772  0.12709146  0.16697569  1
  H  H11  1  0.21985328  0.24816607  0.14308984  1
  H  H12  1  0.45006596  0.28228077  0.12522879  1
  C  C13  1  0.08127360  0.01457409  0.18062843  1
  H  H14  1  0.04309441  0.15004424  0.05340478  1
  H  H15  1  0.18099279  0.35181407  0.22387909  1
  C  C16  1  0.09375891  0.08362199  0.18419816  1
  H  H17  1  0.40814070  0.43525498  0.08263040  1
  H  H18  1  0.19986914  0.42627300  0.03886975  1
  H  H19  1  0.31323130  0.04258730  0.20344020  1
  C  C20  1  0.48646560  0.25094032  0.11695309  1
  Cu  Cu21  1  0.22457477  0.44496171  0.23274848  1
  H  H22  1  0.40940893  0.21171321  0.07659744  1
  Cu  Cu23  1  0.26843736  0.37606139  0.12611395  1
  C  C24  1  0.12533261  0.48475339  0.15509880  1
  C  C25  1  0.40402541  0.07315901  0.06260718  1
  C  C26  1  0.18933503  0.08924344  0.05900782  1
  C  C27  1  0.14066520  0.11264106  0.22373823  1
  N  N28  1  0.47544395  0.19699326  0.07530169  1
  H  H29  1  0.41790810  0.14541184  0.20245613  1
  Cu  Cu30  1  0.34338417  0.43429044  0.20695485  1
  C  C31  1  0.45972293  0.40395286  0.23193045  1
  N  N32  1  0.41946437  0.41658776  0.18296095  1
  H  H33  1  0.08370044  0.03720174  0.02328509  1
  C  C34  1  0.49825035  0.42408829  0.09149836  1
  H  H35  1  0.01796914  0.29049145  0.22663818  1
  C  C36  1  0.15747419  0.18286890  0.21957288  1
  N  N37  1  0.29234243  0.28491419  0.12697698  1
  H  H38  1  0.30001295  0.31797015  0.24504749  1
  C  C39  1  0.34335431  0.27675714  0.11529398  1
  H  H40  1  0.36085212  0.33081606  0.11888596  1
  C  C41  1  0.33769313  0.15859897  0.12122495  1
  C  C42  1  0.36900354  0.21576878  0.09975907  1
  C  C43  1  0.28295392  0.16796565  0.14329770  1
  C  C44  1  0.36230359  0.08976012  0.11535840  1
  H  H45  1  0.13895864  0.21537785  0.17566252  1
  H  H46  1  0.49338543  0.00241066  0.22735230  1
  C  C47  1  0.42799767  0.01213393  0.06689932  1
  H  H48  1  0.25880413  0.12508313  0.15686440  1
  C  C49  1  0.34583169  0.03604113  0.16367123  1
  C  C50  1  0.26240091  0.23288859  0.14010893  1
  C  C51  1  0.44424869  0.41957558  0.11601971  1
  C  C52  1  0.02134862  0.29082982  0.10031753  1
  H  H53  1  0.15997730  0.12923346  0.08058815  1
  H  H54  1  0.41406640  0.10845649  0.01514441  1
  C  C55  1  0.19076538  0.02566344  0.09197369  1
  H  H56  1  0.16537810  0.00637912  0.13755351  1
  H  H57  1  0.32411652  0.18861337  0.24727179  1
  C  C58  1  0.22999423  0.10270362  0.00304637  1
  C  C59  1  0.01509048  0.48261750  0.43214880  1
  Cu  Cu60  1  0.22285152  0.43854674  0.38631260  1
  N  N61  1  0.15729972  0.38891782  0.35038431  1
  C  C62  1  0.14992934  0.32204445  0.34717395  1
  C  C63  1  0.11152298  0.42389805  0.34191118  1
  C  C64  1  0.17116142  0.07895880  0.27940805  1
  N  N65  1  0.22590346  0.17353389  0.31477042  1
  C  C66  1  0.06090575  0.39971874  0.32553105  1
  C  C67  1  0.09988554  0.29210849  0.33872261  1
  C  C68  1  0.05080303  0.32971073  0.33468571  1
  H  H69  1  0.43004489  0.46464181  0.40990071  1
  C  C70  1  0.21562312  0.10813690  0.31213541  1
  H  H71  1  0.02789463  0.43281193  0.31784632  1
  H  H72  1  0.37603456  0.26725947  0.32485186  1
  H  H73  1  0.19004385  0.29782896  0.34494354  1
  C  C74  1  0.41966530  0.32066558  0.44991212  1
  C  C75  1  0.48103707  0.24099282  0.48864734  1
  C  C76  1  0.37026711  0.13811751  0.40985743  1
  H  H77  1  0.10077568  0.23848932  0.34601591  1
  H  H78  1  0.42500977  0.22364560  0.39376810  1
  H  H79  1  0.45075528  0.10048093  0.43926219  1
  C  C80  1  0.43843586  0.25535368  0.43926730  1
  Cu  Cu81  1  0.25550869  0.32184884  0.44199568  1
  H  H82  1  0.43451737  0.39714025  0.28185019  1
  H  H83  1  0.33431467  0.43159422  0.47368874  1
  C  C84  1  0.31143282  0.33671764  0.29951983  1
  H  H85  1  0.12348348  0.47693790  0.34434399  1
  C  C86  1  0.40398541  0.13870306  0.26170333  1
  C  C87  1  0.33429632  0.40179367  0.42136225  1
  C  C88  1  0.46751383  0.49313160  0.40216081  1
  H  H89  1  0.15855654  0.02999882  0.29952273  1
  H  H90  1  0.35448709  0.14668016  0.46640830  1
  Cu  Cu91  1  0.27780575  0.20860482  0.38839801  1
  H  H92  1  0.03319569  0.43165753  0.42723941  1
  N  N93  1  0.33967115  0.16315367  0.35499035  1
  C  C94  1  0.42233468  0.11716459  0.39547351  1
  C  C95  1  0.49546136  0.09222563  0.30007724  1
  H  H96  1  0.23530688  0.08333032  0.36081628  1
  C  C97  1  0.35424839  0.31097288  0.34342027  1
  C  C98  1  0.35483491  0.16514993  0.28660799  1
  C  C99  1  0.19164249  0.20821589  0.26676401  1
  N  N100  1  0.28163227  0.39502699  0.29938864  1
  C  C101  1  0.37102414  0.34485637  0.40716674  1
  C  C102  1  0.43981833  0.11745608  0.31810109  1
  H  H103  1  0.35180948  0.04073587  0.37918173  1
  H  H104  1  0.15247605  0.33637829  0.47759763  1
  C  C105  1  0.30046046  0.41097710  0.36344572  1
  H  H106  1  0.01682472  0.20319109  0.35517584  1
  C  C107  1  0.18667947  0.07413544  0.45744728  1
  C  C108  1  0.18456040  0.00656496  0.44663563  1
  C  C109  1  0.15400304  0.48401928  0.48272775  1
  H  H110  1  0.15302730  0.10722266  0.44254807  1
  H  H111  1  0.41493845  0.00758853  0.27206678  1
  H  H112  1  0.05863293  0.25410327  0.49597184  1
  H  H113  1  0.20593465  0.26099765  0.26416161  1
  H  H114  1  0.03165396  0.01609496  0.38268678  1
  H  H115  1  0.15382489  0.42964882  0.48069960  1
  N  N116  1  0.22662270  0.11141487  0.48800216  1
  H  H117  1  0.33696143  0.25318958  0.49929975  1
  C  C118  1  0.24590472  0.33139032  0.59986851  1
  C  C119  1  0.21820888  0.33461888  0.66892560  1
  C  C120  1  0.42077529  0.35362828  0.70535072  1
  C  C121  1  0.16059093  0.33835673  0.67130677  1
  C  C122  1  0.13584322  0.33629276  0.60145831  1
  H  H123  1  0.09325019  0.34572899  0.59663671  1
  H  H124  1  0.28983863  0.45071602  0.62000675  1
  H  H125  1  0.29788835  0.09771020  0.54443056  1
  H  H126  1  0.12805183  0.23166096  0.59924554  1
  C  C127  1  0.41157487  0.05791031  0.66450693  1
  C  C128  1  0.07463740  0.07739821  0.57909966  1
  C  C129  1  0.16890363  0.32910750  0.53487986  1
  H  H130  1  0.17692289  0.01415215  0.61684536  1
  H  H131  1  0.24320058  0.33934619  0.72249912  1
  C  C132  1  0.11374992  0.12407410  0.60249683  1
  C  C133  1  0.18893900  0.05245269  0.65542847  1
  C  C134  1  0.07679525  0.31191782  0.74811136  1
  C  C135  1  0.12862846  0.33978739  0.74293509  1
  C  C136  1  0.42241423  0.20360467  0.73611195  1
  H  H137  1  0.48838012  0.24277327  0.66508047  1
  H  H138  1  0.01753424  0.19056254  0.67830020  1
  C  C139  1  0.48427308  0.43798857  0.70472968  1
  N  N140  1  0.47325961  0.09493001  0.57441645  1
  N  N141  1  0.22143837  0.32739814  0.53329350  1
  C  C142  1  0.17315108  0.15684322  0.71567385  1
  C  C143  1  0.26860878  0.00273858  0.51294047  1
  C  C144  1  0.47970333  0.33676273  0.54909883  1
  H  H145  1  0.37003940  0.03709695  0.67584016  1
  C  C146  1  0.10230229  0.18979536  0.58164083  1
  H  H147  1  0.24393527  0.17101904  0.64627966  1
  C  C148  1  0.06585453  0.20462842  0.52583912  1
  H  H149  1  0.05697250  0.28414702  0.69906273  1
  C  C150  1  0.45322106  0.47296391  0.65388778  1
  C  C151  1  0.15825221  0.11234866  0.65899108  1
  C  C152  1  0.26687250  0.07051165  0.51609236  1
  H  H153  1  0.07794672  0.02690239  0.60587312  1
  C  C154  1  0.28586088  0.18697446  0.64229582  1
  N  N155  1  0.49804956  0.27533678  0.54535082  1
  C  C156  1  0.42290621  0.07923845  0.59153524  1
  C  C157  1  0.33783872  0.22944104  0.55403333  1
  N  N158  1  0.46668163  0.37866047  0.72832214  1
  C  C159  1  0.36716703  0.49741032  0.58205822  1
  C  C160  1  0.45168331  0.05156024  0.71756203  1
  H  H161  1  0.42572630  0.41746428  0.51313807  1
  N  N162  1  0.29100322  0.20645022  0.57081679  1
  H  H163  1  0.42001879  0.24798377  0.58877853  1
  C  C164  1  0.32460142  0.18202452  0.69732298  1
  C  C165  1  0.37817973  0.19887149  0.67840696  1
  H  H166  1  0.34722702  0.36275386  0.63841383  1
  C  C167  1  0.40048787  0.45074383  0.62883745  1
  C  C168  1  0.38078064  0.22508167  0.60517867  1
  H  H169  1  0.28883435  0.32839373  0.59556043  1
  C  C170  1  0.38423369  0.38983938  0.65794421  1
  H  H171  1  0.15103709  0.20431298  0.72388278  1
  H  H172  1  0.39557378  0.08201928  0.54299196  1
  C  C173  1  0.30999377  0.49104465  0.58722684  1
  H  H174  1  0.02642988  0.42467243  0.60104085  1
  Cu  Cu175  1  0.23037101  0.20868052  0.50891153  1
  C  C176  1  0.47595959  0.22735759  0.72189588  1
  H  H177  1  0.41454077  0.30503896  0.73107288  1
  C  C178  1  0.22871695  0.03668365  0.70777635  1
  N  N179  1  0.03118395  0.15791439  0.50139205  1
  C  C180  1  0.03442560  0.09807330  0.52926340  1
  H  H181  1  0.00190350  0.06642742  0.50614028  1
  C  C182  1  0.43678885  0.36388685  0.50942761  1
  C  C183  1  0.10757670  0.06345450  0.90816792  1
  C  C184  1  0.10443960  0.11876179  0.85699904  1
  H  H185  1  0.36842887  0.26636988  0.98066487  1
  N  N186  1  0.06025781  0.35102446  0.87457385  1
  H  H187  1  0.32607600  0.45373840  0.95244762  1
  N  N188  1  0.49871311  0.21432166  0.85395555  1
  C  C189  1  0.11082885  0.37393046  0.86984214  1
  C  C190  1  0.19592587  0.25278921  0.88258146  1
  H  H191  1  0.11388686  0.39926389  0.92617169  1
  N  N192  1  0.24743689  0.41825162  0.94789735  1
  H  H193  1  0.16262557  0.28260929  0.85756300  1
  N  N194  1  0.35169428  0.36412953  0.97035334  1
  C  C195  1  0.19147347  0.20322353  0.93738964  1
  C  C196  1  0.41032999  0.18287907  0.81075641  1
  C  C197  1  0.04427027  0.31924381  0.81222908  1
  H  H198  1  0.47054183  0.29448777  0.95236703  1
  C  C199  1  0.25908422  0.43499610  0.87949529  1
  C  C200  1  0.08441454  0.07535233  0.97976793  1
  H  H201  1  0.15265028  0.18708659  0.95851444  1
  N  N202  1  0.06512013  0.18818812  0.95143696  1
  H  H203  1  0.10419828  0.02608468  0.76807633  1
  H  H204  1  0.07721510  0.22831364  0.85573545  1
  C  C205  1  0.08266951  0.17808723  0.88122077  1
  C  C206  1  0.28629795  0.19049156  0.92677456  1
  H  H207  1  0.29002922  0.05478618  0.93634884  1
  C  C208  1  0.23697783  0.16785956  0.95932706  1
  H  H209  1  0.32123559  0.16257425  0.94338327  1
  C  C210  1  0.45689865  0.39952576  0.93525331  1
  C  C211  1  0.40206397  0.03082058  0.84639723  1
  H  H212  1  0.37793249  0.07477714  0.83853874  1
  N  N213  1  0.24069325  0.27212055  0.85347487  1
  C  C214  1  0.23588211  0.48809351  0.83824013  1
  N  N215  1  0.24594967  0.08400180  0.75403269  1
  H  H216  1  0.31369793  0.27745519  0.84399876  1
  C  C217  1  0.41656453  0.44876535  0.94210212  1
  H  H218  1  0.22989715  0.17015398  0.80942647  1
  C  C219  1  0.28488906  0.24391943  0.87669605  1
  H  H220  1  0.29121708  0.40263499  0.85966009  1
  C  C221  1  0.36387477  0.42600176  0.95573614  1
  C  C222  1  0.26502945  0.04969972  0.98551567  1
  C  C223  1  0.14817061  0.37009600  0.81187451  1
  H  H224  1  0.45091797  0.17306429  0.92453050  1
  C  C225  1  0.43997540  0.33263295  0.94986164  1
  C  C226  1  0.44953091  0.19152478  0.86694172  1
  H  H227  1  0.37263284  0.15710554  0.81957700  1
  Cu  Cu228  1  0.27940945  0.34450647  0.98902788  1
  H  H229  1  0.09249796  0.28955408  0.98442440  1
  H  H230  1  0.18639024  0.39792184  0.81755822  1
  C  C231  1  0.38737339  0.31667312  0.96866943  1
  H  H232  1  0.12133388  0.11181663  0.80119170  1
  C  C233  1  0.20521653  0.44783240  0.98257402  1
  C  C234  1  0.17667443  0.49781765  0.94709304  1
  H  H235  1  0.19305188  0.32389945  0.99926218  1
  H  H236  1  0.00380018  0.27864057  0.98657777  1
  H  H237  1  0.31712283  0.16704281  0.75542857  1
  H  H238  1  0.00188352  0.30335456  0.82178023  1
  C  C239  1  0.21803569  0.14002958  0.76050422  1
  H  H240  1  0.48118456  0.00011548  0.90176359  1
  C  C241  1  0.43906179  0.01104959  0.79003538  1
  C  C242  1  0.06304749  0.13806261  0.99899628  1
  C  C243  1  0.08791993  0.52389562  0.11809475  1
  C  C244  1  0.19201207  0.56448470  0.14971368  1
  C  C245  1  0.10137871  0.59264370  0.10169821  1
  C  C246  1  0.15712794  0.60793271  0.11392075  1
  H  H247  1  0.17282939  0.65647887  0.09679449  1
  C  C248  1  0.11424134  0.83564623  0.17814905  1
  C  C249  1  0.02976823  0.99316708  0.15735213  1
  H  H250  1  0.45989411  0.99583642  0.02831479  1
  H  H251  1  0.12237581  0.71983663  0.07840275  1
  C  C252  1  0.31074874  0.50374070  0.07715368  1
  C  C253  1  0.13369456  0.77725683  0.21046630  1
  H  H254  1  0.39069674  0.61411411  0.03366050  1
  H  H255  1  0.10871826  0.73171277  0.21550422  1
  H  H256  1  0.04454441  0.50754275  0.10792399  1
  N  N257  1  0.22759582  0.97773711  0.08051379  1
  H  H258  1  0.01612602  0.94315663  0.14771171  1
  C  C259  1  0.25489855  0.67535371  0.03679884  1
  H  H260  1  0.32214778  0.86741605  0.12888337  1
  H  H261  1  0.19281955  0.82289403  0.09228049  1
  N  N262  1  0.38115669  0.81068451  0.08459444  1
  C  C263  1  0.28747587  0.61858378  0.06649497  1
  N  N264  1  0.41314841  0.96626572  0.11680872  1
  N  N265  1  0.33660185  0.51065180  0.14363735  1
  Cu  Cu266  1  0.44945368  0.88375521  0.11741851  1
  H  H267  1  0.23422804  0.57332792  0.16582633  1
  C  C268  1  0.24334688  0.73007364  0.08405749  1
  C  C269  1  0.39558882  0.74790638  0.23071222  1
  C  C270  1  0.41154636  0.75476413  0.09724146  1
  C  C271  1  0.05780472  0.75151750  0.00161285  1
  H  H272  1  0.07562785  0.83964137  0.14818588  1
  C  C273  1  0.28617920  0.55486612  0.03627693  1
  N  N274  1  0.17589011  0.50463419  0.17690613  1
  C  C275  1  0.08379212  0.70722798  0.04959924  1
  H  H276  1  0.10999049  0.97763977  0.20399456  1
  C  C277  1  0.37115023  0.97586652  0.16031609  1
  C  C278  1  0.35081989  0.82694106  0.14533112  1
  C  C279  1  0.06687757  0.63964782  0.05764272  1
  C  C280  1  0.01479493  0.63130614  0.02467036  1
  C  C281  1  0.42199746  0.72397354  0.16628831  1
  H  H282  1  0.36062152  0.93057078  0.19419788  1
  H  H283  1  0.37495930  0.57574745  0.21060980  1
  C  C284  1  0.32500193  0.62908323  0.12804614  1
  C  C285  1  0.20841084  0.78099203  0.06010225  1
  H  H286  1  0.43316022  0.73868755  0.04552096  1
  H  H287  1  0.26267523  0.73007190  0.13807196  1
  H  H288  1  0.45540391  0.68521226  0.17129219  1
  C  C289  1  0.35565547  0.79992053  0.21597971  1
  C  C290  1  0.35063942  0.57710776  0.15777585  1
  H  H291  1  0.33343214  0.67992096  0.15013756  1
  N  N292  1  0.14158569  0.89311025  0.17725898  1
  C  C293  1  0.18665194  0.89722266  0.22029609  1
  H  H294  1  0.20364679  0.94562871  0.21119712  1
  C  C295  1  0.18652963  0.77880449  0.24053969  1
  H  H296  1  0.29240581  0.94826717  0.01766717  1
  C  C297  1  0.26438857  0.98863241  0.02749898  1
  C  C298  1  0.44499588  0.65435998  0.40939019  1
  H  H299  1  0.22910612  0.58749464  0.39710038  1
  H  H300  1  0.18963700  0.74944774  0.38092673  1
  H  H301  1  0.09983661  0.65150398  0.36119129  1
  C  C302  1  0.18556533  0.65465046  0.26485504  1
  H  H303  1  0.15405613  0.87152792  0.41783869  1
  C  C304  1  0.00572772  0.60717706  0.43371718  1
  C  C305  1  0.19585726  0.57315389  0.43344936  1
  C  C306  1  0.41244478  0.97901593  0.32408633  1
  H  H307  1  0.46855989  0.61367147  0.43461315  1
  C  C308  1  0.19471683  0.85303594  0.43240690  1
  C  C309  1  0.02872638  0.67569614  0.42738496  1
  C  C310  1  0.21029723  0.78563302  0.41668305  1
  N  N311  1  0.05030517  0.81177037  0.39422139  1
  C  C312  1  0.21534943  0.59653408  0.27744922  1
  H  H313  1  0.47230034  0.79386230  0.29370457  1
  H  H314  1  0.45596661  0.63282007  0.29056915  1
  N  N315  1  0.37672349  0.96888659  0.45209350  1
  C  C316  1  0.07974442  0.76141972  0.36694265  1
  C  C317  1  0.01403970  0.79503247  0.44530846  1
  C  C318  1  0.16635631  0.61855297  0.47586948  1
  C  C319  1  0.03311079  0.54817720  0.41620752  1
  N  N320  1  0.25833979  0.75914598  0.43096740  1
  Cu  Cu321  1  0.29450391  0.50765261  0.30453445  1
  N  N322  1  0.26802648  0.59416181  0.29199675  1
  H  H323  1  0.18349381  0.66810630  0.47411398  1
  C  C324  1  0.44481960  0.91964937  0.33532588  1
  C  C325  1  0.26878261  0.71131104  0.28371808  1
  C  C326  1  0.49380763  0.51904975  0.33781867  1
  H  H327  1  0.47821398  0.50367323  0.28211283  1
  H  H328  1  0.10726360  0.77912124  0.32911516  1
  C  C329  1  0.00268580  0.73129826  0.46406450  1
  C  C330  1  0.40867888  0.91684719  0.46080040  1
  C  C331  1  0.44407748  0.88900965  0.40677183  1
  H  H332  1  0.07151008  0.92693096  0.44657528  1
  N  N333  1  0.48569877  0.50285284  0.46946715  1
  C  C334  1  0.29355557  0.79547075  0.46900760  1
  H  H335  1  0.46877472  0.84688201  0.42113168  1
  C  C336  1  0.40601498  0.72133911  0.30894790  1
  N  N337  1  0.42970334  0.69470426  0.46330648  1
  C  C338  1  0.29522292  0.65054198  0.29551782  1
  C  C339  1  0.37889245  0.99584459  0.38306069  1
  H  H340  1  0.07790199  0.54819021  0.40487389  1
  H  H341  1  0.25330072  0.84533145  0.27070695  1
  C  C342  1  0.21129983  0.84267841  0.25083510  1
  C  C343  1  0.43652637  0.66515649  0.33255661  1
  H  H344  1  0.29355132  0.75555012  0.28602504  1
  C  C345  1  0.21369360  0.71612298  0.26161788  1
  H  H346  1  0.37417578  0.81127593  0.36203812  1
  C  C347  1  0.39506776  0.76382750  0.37159298  1
  C  C348  1  0.23460341  0.89347528  0.46586152  1
  H  H349  1  0.33749810  0.64312536  0.30914016  1
  C  C350  1  0.07309438  0.69259804  0.38182368  1
  C  C351  1  0.40686093  0.74947680  0.44633677  1
  H  H352  1  0.02560477  0.56055431  0.27531064  1
  H  H353  1  0.15237565  0.98306624  0.41714112  1
  C  C354  1  0.22632996  0.96659659  0.47512311  1
  H  H355  1  0.32991058  0.81689902  0.26509246  1
  C  C356  1  0.48047154  0.89937721  0.27078355  1
  N  N357  1  0.18998650  0.50815975  0.43804559  1
  H  H358  1  0.02052220  0.69519167  0.27523450  1
  H  H359  1  0.36246270  0.63797920  0.46913657  1
  C  C360  1  0.28458960  0.86294147  0.48356752  1
  H  H361  1  0.20075658  0.54601558  0.28206893  1
  H  H362  1  0.39825095  0.77891428  0.49568611  1
  H  H363  1  0.32959538  0.76743147  0.48717209  1
  C  C364  1  0.48779513  0.83124453  0.25531600  1
  H  H365  1  0.14105416  0.65121562  0.25262672  1
  N  N366  1  0.20718893  0.82885928  0.65511317  1
  N  N367  1  0.06227613  0.92154094  0.63899703  1
  C  C368  1  0.08645230  0.63941377  0.56822935  1
  C  C369  1  0.03371751  0.61890774  0.58850813  1
  H  H370  1  0.12546811  0.90098755  0.56786523  1
  H  H371  1  0.07327471  0.79889243  0.63612798  1
  H  H372  1  0.13706840  0.72807520  0.55870379  1
  C  C373  1  0.30383050  0.66384708  0.73099846  1
  C  C374  1  0.25843460  0.73032810  0.62434027  1
  C  C375  1  0.36346228  0.56627631  0.72862219  1
  N  N376  1  0.29816940  0.59412097  0.51193451  1
  C  C377  1  0.22835047  0.78652660  0.60431341  1
  H  H378  1  0.21945979  0.80368951  0.54756739  1
  C  C379  1  0.08381362  0.91988484  0.56938748  1
  C  C380  1  0.12091354  0.52627228  0.52553935  1
  H  H381  1  0.30852382  0.84422624  0.63792225  1
  C  C382  1  0.46274620  0.82965682  0.62728660  1
  H  H383  1  0.30130472  0.97397602  0.53766982  1
  N  N384  1  0.02219150  0.71911469  0.66422453  1
  H  H385  1  0.46829478  0.52132505  0.63534666  1
  C  C386  1  0.12352663  0.59744258  0.52224618  1
  H  H387  1  0.01610217  0.56905090  0.56870033  1
  C  C388  1  0.38759509  0.55224371  0.53941478  1
  C  C389  1  0.33392390  0.61475501  0.69034580  1
  C  C390  1  0.43444428  0.89050024  0.62693423  1
  H  H391  1  0.27846448  0.70049778  0.58206479  1
  C  C392  1  0.46242929  0.66228404  0.71404431  1
  C  C393  1  0.27222187  0.72055775  0.70004342  1
  N  N394  1  0.37947379  0.88945797  0.62606585  1
  C  C395  1  0.28041159  0.54057445  0.54714647  1
  H  H396  1  0.42992790  0.55501070  0.52947021  1
  H  H397  1  0.31611606  0.88993002  0.51001385  1
  C  C398  1  0.46803023  0.70520994  0.65165635  1
  C  C399  1  0.35163693  0.83415209  0.64059083  1
  C  C400  1  0.22433164  0.82154484  0.72525014  1
  C  C401  1  0.37801342  0.77373333  0.65465183  1
  H  H402  1  0.45151522  0.94126179  0.61471732  1
  C  C403  1  0.43430118  0.76884642  0.64461483  1
  C  C404  1  0.06610431  0.74674384  0.62826745  1
  C  C405  1  0.09926795  0.70897033  0.58344719  1
  C  C406  1  0.00399008  0.66009278  0.63798368  1
  H  H407  1  0.09094560  0.50402639  0.55778119  1
  H  H408  1  0.16500485  0.71326404  0.71442489  1
  H  H409  1  0.38091087  0.52142338  0.70414122  1
  H  H410  1  0.35365497  0.73298771  0.67423024  1
  H  H411  1  0.32933847  0.61723384  0.63031503  1
  C  C412  1  0.35151448  0.59692189  0.50548329  1
  C  C413  1  0.00913513  0.93813893  0.64278328  1
  C  C414  1  0.49532714  0.60536201  0.70987449  1
  H  H415  1  0.08568431  0.90376229  0.72064429  1
  H  H416  1  0.39999814  0.89522127  0.51692389  1
  H  H417  1  0.23747383  0.54421594  0.54228931  1
  H  H418  1  0.33806472  0.92302129  0.74246788  1
  H  H419  1  0.21241374  0.60407278  0.73976377  1
  H  H420  1  0.24849565  0.98753105  0.71168152  1
  H  H421  1  0.48874540  0.56065442  0.74985902  1
  C  C422  1  0.05292005  0.93136108  0.50606581  1
  C  C423  1  0.12536581  0.61118510  0.88970508  1
  C  C424  1  0.16747098  0.58430013  0.84426764  1
  C  C425  1  0.11194851  0.98097434  0.80277587  1
  C  C426  1  0.09646501  0.66369169  0.85946100  1
  C  C427  1  0.11938590  0.87260566  0.89729347  1
  H  H428  1  0.05956926  0.68579261  0.88728294  1
  H  H429  1  0.12721710  0.82015571  0.91432167  1
  C  C430  1  0.19699922  0.72752466  0.94616443  1
  H  H431  1  0.42551072  0.50526377  0.93320647  1
  C  C432  1  0.19321596  0.52247255  0.87488483  1
  H  H433  1  0.11291088  0.58609540  0.94101606  1
  H  H434  1  0.17791676  0.73257601  0.88927686  1
  N  N435  1  0.01439192  0.73888691  0.95974464  1
  C  C436  1  0.43803740  0.72653812  0.87550639  1
  H  H437  1  0.25343536  0.50045668  0.78210409  1
  C  C438  1  0.12632113  0.93543329  0.92915672  1
  H  H439  1  0.46273006  0.85858039  0.87366217  1
  C  C440  1  0.46189722  0.94770484  0.79694758  1
  H  H441  1  0.23384077  0.89014950  0.91826671  1
  C  C442  1  0.15392284  0.67999539  0.76305273  1
  H  H443  1  0.48721656  0.93080363  0.75271854  1
  H  H444  1  0.43261604  0.67200103  0.75778746  1
  H  H445  1  0.22650411  0.62316805  0.93860247  1
  C  C446  1  0.22694717  0.67117771  0.96860164  1
  C  C447  1  0.11973582  0.99301645  0.88159084  1
  N  N448  1  0.10342075  0.86197381  0.82401671  1
  N  N449  1  0.36626919  0.56160025  0.80410935  1
  N  N450  1  0.11310393  0.69976711  0.80302729  1
  C  C451  1  0.30343108  0.81747586  0.91684620  1
  H  H452  1  0.36551839  0.99358697  0.95149577  1
  H  H453  1  0.29678202  0.78798740  0.96690997  1
  C  C454  1  0.18099594  0.62079789  0.77882129  1
  H  H455  1  0.26358941  0.54005570  0.98166698  1
  Cu  Cu456  1  0.07529675  0.77763627  0.77641794  1
  H  H457  1  0.34570696  0.59579233  0.90129965  1
  N  N458  1  0.28596638  0.90500816  0.82835866  1
  H  H459  1  0.02970549  0.90236548  0.93293215  1
  C  C460  1  0.34921221  0.79807845  0.87344003  1
  C  C461  1  0.36173967  0.83163415  0.80620034  1
  N  N462  1  0.41621228  0.92655636  0.91533868  1
  H  H463  1  0.00113293  0.64331369  0.75787373  1
  C  C464  1  0.46484256  0.67213705  0.90279208  1
  C  C465  1  0.27444021  0.87295120  0.89241299  1
  C  C466  1  0.39969476  0.64910527  0.98767141  1
  H  H467  1  0.32780897  0.71317698  0.98793735  1
  C  C468  1  0.30328776  0.65465339  0.81021935  1
  C  C469  1  0.38545507  0.74293969  0.90234951  1
  H  H470  1  0.26542767  0.76733959  0.81072314  1
  C  C471  1  0.09925966  0.91847172  0.78068256  1
  C  C472  1  0.44940069  0.90988208  0.86083393  1
  C  C473  1  0.33750380  0.60526526  0.84055105  1
  H  H474  1  0.28845997  0.69345083  0.84696672  1
  C  C475  1  0.32919485  0.88750984  0.78788828  1
  H  H476  1  0.39463025  0.81582025  0.76973680  1
  C  C477  1  0.25149663  0.76660388  0.75258805  1
  H  H478  1  0.45955811  0.75057680  0.83106903  1
  C  C479  1  0.39218919  0.98434863  0.90463161  1
  H  H480  1  0.20927219  0.86379636  0.76145247  1
  H  H481  1  0.13926274  0.94036631  0.98869688  1
  N  N482  1  0.44635594  0.63476620  0.95807308  1
  C  C483  1  0.36687640  0.70208702  0.96082590  1
  H  H484  1  0.13948330  0.52016886  0.96899052  1
  N  N485  1  0.18486568  0.77830198  0.99264729  1
  Cu  Cu486  1  0.49850157  0.88386626  0.99831512  1
  Cu  Cu487  1  0.39768760  0.86654959  0.99352269  1
  H  H488  1  0.07168458  0.80261612  0.98933950  1
  H  H489  1  0.49630608  0.83095158  0.77370935  1
  C  C490  1  0.68228513  0.19328404  0.11169677  1
  N  N491  1  0.70232490  0.38733083  0.08619203  1
  C  C492  1  0.63689421  0.22609313  0.14375744  1
  H  H493  1  0.59560559  0.12590242  0.06194012  1
  C  C494  1  0.56630947  0.16580156  0.07287838  1
  H  H495  1  0.68076959  0.16743120  0.05573235  1
  C  C496  1  0.63890303  0.45254899  0.16182793  1
  C  C497  1  0.53689890  0.41691329  0.14913275  1
  C  C498  1  0.66128968  0.34751076  0.06713848  1
  C  C499  1  0.58161007  0.22503831  0.11186984  1
  C  C500  1  0.90722235  0.43027839  0.00081823  1
  C  C501  1  0.60822045  0.35917310  0.07946973  1
  C  C502  1  0.59683957  0.41397116  0.13102856  1
  Cu  Cu503  1  0.77144918  0.34641179  0.04052074  1
  H  H504  1  0.54607153  0.31002319  0.17380518  1
  C  C505  1  0.68974678  0.43967359  0.12796083  1
  C  C506  1  0.53852698  0.26664143  0.13837409  1
  H  H507  1  0.69962435  0.01378863  0.12299412  1
  C  C508  1  0.64569899  0.26567094  0.20924221  1
  C  C509  1  0.51147078  0.15200437  0.05679043  1
  H  H510  1  0.60604018  0.12500989  0.18728876  1
  H  H511  1  0.72780177  0.46809836  0.13722859  1
  Cu  Cu512  1  0.86274913  0.37747102  0.12393511  1
  H  H513  1  0.95943766  0.12835005  0.14258543  1
  C  C514  1  0.87500462  0.02600938  0.01351713  1
  C  C515  1  0.72981027  0.19734521  0.15103460  1
  C  C516  1  0.99760196  0.09959488  0.15266241  1
  C  C517  1  0.93024480  0.26616084  0.04978229  1
  H  H518  1  0.78828218  0.20822448  0.00391959  1
  C  C519  1  0.99650288  0.28154169  0.17212050  1
  C  C520  1  0.98461417  0.27708457  0.04026002  1
  H  H521  1  0.92332144  0.37712158  0.00624446  1
  N  N522  1  0.73674725  0.22378692  0.21940945  1
  Cu  Cu523  1  0.83263531  0.25538562  0.12948565  1
  Cu  Cu524  1  0.86785960  0.02640774  0.22442366  1
  C  C525  1  0.89457817  0.09236479  0.03311778  1
  C  C526  1  0.87107533  0.12253983  0.09538708  1
  H  H527  1  0.76641183  0.04178205  0.13451647  1
  N  N528  1  0.87542673  0.44543237  0.05619345  1
  H  H529  1  0.90298671  0.24836781  0.00629497  1
  C  C530  1  0.94326612  0.26165748  0.17519724  1
  H  H531  1  0.76726637  0.17291874  0.13170293  1
  H  H532  1  0.51104898  0.42905676  0.03002603  1
  N  N533  1  0.90842226  0.26230387  0.11880769  1
  H  H534  1  0.63129691  0.49317988  0.20182558  1
  N  N535  1  0.82687933  0.09755394  0.13378616  1
  C  C536  1  0.80328130  0.04487803  0.10079054  1
  H  H537  1  0.88780432  0.17059004  0.11787150  1
  C  C538  1  0.51549996  0.40212285  0.22155065  1
  Cu  Cu539  1  0.77841604  0.34636682  0.19436543  1
  Cu  Cu540  1  0.68720691  0.05608909  0.24090732  1
  C  C541  1  0.57969072  0.10150234  0.22883067  1
  H  H542  1  0.57584439  0.33184554  0.05089506  1
  Cu  Cu543  1  0.78883325  0.11659172  0.23549101  1
  H  H544  1  0.65478592  0.46773015  0.02228467  1
  H  H545  1  0.50518698  0.15304337  0.19784421  1
  H  H546  1  0.92036315  0.24723943  0.22721258  1
  H  H547  1  0.82135513  0.49369197  0.10191308  1
  H  H548  1  0.67941171  0.30338807  0.03541505  1
  C  C549  1  0.69578457  0.26436812  0.23961802  1
  H  H550  1  0.61323405  0.29300528  0.23594790  1
  H  H551  1  0.92872691  0.11255234  0.00079459  1
  C  C552  1  0.82768280  0.00441012  0.04810979  1
  N  N553  1  0.98933178  0.03536396  0.14832469  1
  C  C554  1  0.52575591  0.11870455  0.23774416  1
  H  H555  1  0.66246941  0.04135876  0.00888375  1
  H  H556  1  0.50029644  0.11197105  0.01932882  1
  N  N557  1  0.96682471  0.47397404  0.46121814  1
  H  H558  1  0.60711035  0.11356756  0.36925417  1
  H  H559  1  0.64101593  0.21376781  0.36370789  1
  C  C560  1  0.52462515  0.04684523  0.34332187  1
  C  C561  1  0.62549042  0.26159684  0.38376579  1
  C  C562  1  0.64824686  0.30441285  0.43657055  1
  H  H563  1  0.92006319  0.16893779  0.40202038  1
  C  C564  1  0.61927348  0.36142097  0.45805490  1
  H  H565  1  0.68830409  0.29322600  0.46474207  1
  C  C566  1  0.78514960  0.43141430  0.45362159  1
  C  C567  1  0.56964663  0.37756279  0.42126028  1
  N  N568  1  0.64952071  0.05526654  0.43970685  1
  C  C569  1  0.61799737  0.10950164  0.43045114  1
  H  H570  1  0.97376580  0.06046368  0.27503905  1
  C  C571  1  0.99554648  0.30530497  0.34292967  1
  C  C572  1  0.57649015  0.02311361  0.32367089  1
  N  N573  1  0.88518983  0.25611064  0.38207168  1
  H  H574  1  0.88184853  0.12145049  0.49096072  1
  H  H575  1  0.76533059  0.47427582  0.42611511  1
  H  H576  1  0.95523531  0.39964466  0.34956867  1
  C  C577  1  0.60565117  0.15358175  0.48684191  1
  Cu  Cu578  1  0.80481264  0.23720381  0.27182732  1
  H  H579  1  0.70762602  0.14659223  0.35575957  1
  C  C580  1  0.83247273  0.11776813  0.38912033  1
  C  C581  1  0.74532003  0.15095755  0.46963723  1
  H  H582  1  0.71318476  0.43677229  0.27231177  1
  H  H583  1  0.70678849  0.29320012  0.29004392  1
  H  H584  1  0.75852026  0.35798794  0.36722301  1
  C  C585  1  0.84112360  0.12823055  0.46626068  1
  C  C586  1  0.94785944  0.34668556  0.35263688  1
  H  H587  1  0.54670228  0.42267877  0.42812974  1
  C  C588  1  0.77927044  0.36847688  0.42146242  1
  H  H589  1  0.70699622  0.16484137  0.49833235  1
  H  H590  1  0.58555224  0.20078046  0.46782221  1
  N  N591  1  0.79953852  0.31533718  0.45443372  1
  C  C592  1  0.74542084  0.14394143  0.39240576  1
  H  H593  1  0.86302475  0.10364272  0.34612177  1
  N  N594  1  0.57751823  0.27520185  0.35340332  1
  C  C595  1  0.93072652  0.21597967  0.37558881  1
  H  H596  1  0.86412502  0.35064356  0.38877928  1
  C  C597  1  0.89823221  0.32035657  0.37258425  1
  C  C598  1  0.98159802  0.23683632  0.35267536  1
  Cu  Cu599  1  0.81154356  0.23145838  0.41413261  1
  N  N600  1  0.78894632  0.13000088  0.34643382  1
  H  H601  1  0.50461334  0.02570806  0.38938009  1
  C  C602  1  0.98990651  0.00371978  0.37977685  1
  H  H603  1  0.77178970  0.03685576  0.42043323  1
  C  C604  1  0.75350371  0.45408909  0.28323992  1
  H  H605  1  0.50300725  0.19173928  0.49433821  1
  C  C606  1  0.84530670  0.43586586  0.27078585  1
  C  C607  1  0.55046819  0.33085134  0.37135023  1
  H  H608  1  0.51274521  0.33072158  0.33796533  1
  N  N609  1  0.79482437  0.42202118  0.25769102  1
  N  N610  1  0.60777036  0.05673184  0.27220289  1
  C  C611  1  0.96006764  0.02626253  0.31902999  1
  C  C612  1  0.86040884  0.49410437  0.30889074  1
  N  N613  1  0.90965330  0.00857210  0.30942147  1
  H  H614  1  0.87163321  0.38958251  0.26055449  1
  H  H615  1  0.54130027  0.38972344  0.26968018  1
  C  C616  1  0.62350828  0.19562246  0.62228355  1
  C  C617  1  0.83353033  0.38349503  0.55424330  1
  C  C618  1  0.62069248  0.31240168  0.65969843  1
  C  C619  1  0.62577134  0.14383675  0.56054207  1
  H  H620  1  0.61028570  0.28574379  0.54586822  1
  C  C621  1  0.63451362  0.18356296  0.69866258  1
  C  C622  1  0.61746362  0.44903182  0.56495851  1
  H  H623  1  0.69146439  0.00242151  0.50212823  1
  H  H624  1  0.67898160  0.07387566  0.62696157  1
  H  H625  1  0.50464896  0.36212626  0.59280884  1
  C  C626  1  0.64308989  0.47992444  0.62373075  1
  C  C627  1  0.65845904  0.08555145  0.57481330  1
  C  C628  1  0.71825686  0.41995297  0.60712689  1
  N  N629  1  0.69320897  0.46634362  0.64400686  1
  H  H630  1  0.63837093  0.13099833  0.71466273  1
  C  C631  1  0.61695514  0.26538546  0.60443613  1
  C  C632  1  0.95545490  0.39145006  0.66903310  1
  C  C633  1  0.75922919  0.16555353  0.71702643  1
  H  H634  1  0.71866954  0.19690013  0.61985705  1
  H  H635  1  0.54927294  0.10514055  0.59597825  1
  H  H636  1  0.84255362  0.27193918  0.53680015  1
  C  C637  1  0.75282385  0.16924545  0.64033713  1
  H  H638  1  0.75927828  0.40781823  0.62838050  1
  C  C639  1  0.51179443  0.09215933  0.62665182  1
  C  C640  1  0.81327529  0.44202016  0.52200792  1
  N  N641  1  0.99951438  0.10818828  0.73728319  1
  H  H642  1  0.61502616  0.36723125  0.65602245  1
  H  H643  1  0.96754516  0.24689474  0.54112822  1
  C  C644  1  0.79727842  0.14936202  0.59488365  1
  C  C645  1  0.91673268  0.34126067  0.68251913  1
  H  H646  1  0.57620053  0.46248374  0.55001954  1
  C  C647  1  0.96240582  0.28419458  0.58774215  1
  N  N648  1  0.99855024  0.32972989  0.57548910  1
  C  C649  1  0.69735789  0.38653556  0.54573781  1
  C  C650  1  0.84523017  0.12800967  0.71395362  1
  H  H651  1  0.88755671  0.24567427  0.64147258  1
  C  C652  1  0.64462817  0.39971731  0.51989373  1
  H  H653  1  0.52144512  0.44859154  0.73788830  1
  H  H654  1  0.84614081  0.47081299  0.67284848  1
  H  H655  1  0.94374930  0.44006792  0.69236116  1
  C  C656  1  0.84247023  0.12735875  0.63502263  1
  H  H657  1  0.72123123  0.34310602  0.52454175  1
  H  H658  1  0.85374964  0.38089230  0.60991567  1
  C  C659  1  0.91936967  0.28224501  0.64139238  1
  C  C660  1  0.82471977  0.32135696  0.51731730  1
  H  H661  1  0.82056073  0.27702518  0.67996622  1
  H  H662  1  0.77505086  0.04509261  0.70327852  1
  H  H663  1  0.87778254  0.10478422  0.60532859  1
  Cu  Cu664  1  0.73445652  0.49531936  0.72440600  1
  C  C665  1  0.73440482  0.02092525  0.70068960  1
  C  C666  1  0.81996565  0.32115079  0.71608219  1
  C  C667  1  0.99742440  0.38391262  0.61921494  1
  C  C668  1  0.66838777  0.05012512  0.50816923  1
  C  C669  1  0.79541618  0.14456659  0.50933890  1
  C  C670  1  0.50540996  0.07215464  0.70113807  1
  C  C671  1  0.86772582  0.35874531  0.72821174  1
  H  H672  1  0.73004446  0.31658141  0.73590487  1
  N  N673  1  0.63469281  0.29743728  0.73014312  1
  C  C674  1  0.99389614  0.17351210  0.72915531  1
  C  C675  1  0.77098576  0.34129638  0.74562960  1
  H  H676  1  0.53973580  0.06688193  0.73737956  1
  C  C677  1  0.58691769  0.48619226  0.88080248  1
  Cu  Cu678  1  0.69203758  0.42612619  0.82069809  1
  N  N679  1  0.61906247  0.43509647  0.85580694  1
  C  C680  1  0.55197859  0.06682601  0.89547875  1
  H  H681  1  0.53358851  0.09929603  0.85287732  1
  C  C682  1  0.60624630  0.20643057  0.93266896  1
  H  H683  1  0.94682088  0.26233126  0.75162277  1
  C  C684  1  0.51170930  0.41360110  0.90663416  1
  C  C685  1  0.68847155  0.14776700  0.89783435  1
  C  C686  1  0.59243013  0.37831772  0.84621250  1
  C  C687  1  0.91855927  0.47587543  0.94407782  1
  H  H688  1  0.61599801  0.34054045  0.81563505  1
  C  C689  1  0.64013339  0.26422218  0.93115849  1
  N  N690  1  0.82344389  0.29473760  0.97470239  1
  C  C691  1  0.71520522  0.20811491  0.89183465  1
  C  C692  1  0.63147585  0.14760299  0.90872030  1
  N  N693  1  0.69107700  0.26271998  0.91299138  1
  C  C694  1  0.60144255  0.08255513  0.93026802  1
  C  C695  1  0.93789940  0.10944765  0.83308778  1
  H  H696  1  0.89546956  0.44648007  0.79491399  1
  H  H697  1  0.56388664  0.20523542  0.95314805  1
  C  C698  1  0.62066911  0.03660075  0.98553181  1
  H  H699  1  0.65114749  0.22321623  0.81172851  1
  H  H700  1  0.72800569  0.18361022  0.75647425  1
  H  H701  1  0.80700555  0.46759622  0.84216958  1
  H  H702  1  0.70922147  0.09969676  0.88846252  1
  Cu  Cu703  1  0.75762238  0.44724151  0.95041367  1
  C  C704  1  0.86433844  0.41336564  0.77947611  1
  C  C705  1  0.95616639  0.21143171  0.76734443  1
  N  N706  1  0.76633585  0.39554534  0.79022555  1
  H  H707  1  0.94628969  0.46356133  0.90079866  1
  H  H708  1  0.91435417  0.31436191  0.83656682  1
  H  H709  1  0.85593699  0.13070983  0.93346452  1
  C  C710  1  0.92830232  0.17931252  0.82725251  1
  C  C711  1  0.51013702  0.23171554  0.78323127  1
  C  C712  1  0.81215244  0.42953099  0.80289757  1
  C  C713  1  0.88973087  0.21755433  0.87344800  1
  C  C714  1  0.53596393  0.47809794  0.90799413  1
  H  H715  1  0.75794225  0.20900095  0.87083472  1
  H  H716  1  0.98767401  0.01163480  0.99578555  1
  C  C717  1  0.85888166  0.32442050  0.92751690  1
  H  H718  1  0.91458497  0.08368886  0.87643619  1
  C  C719  1  0.85715197  0.18557783  0.92700718  1
  H  H720  1  0.52114057  0.31469841  0.86182587  1
  C  C721  1  0.89006548  0.28990477  0.87816949  1
  Cu  Cu722  1  0.73412482  0.33814735  0.90472907  1
  C  C723  1  0.52323842  0.01185507  0.92222712  1
  C  C724  1  0.97226070  0.07334097  0.78632723  1
  H  H725  1  0.62737063  0.31382785  0.94515266  1
  H  H726  1  0.85466939  0.37823676  0.92540873  1
  C  C727  1  0.54200100  0.36276881  0.87240623  1
  H  H728  1  0.63579710  0.04591875  0.81026650  1
  C  C729  1  0.82221206  0.22771196  0.96865169  1
  H  H730  1  0.98208416  0.01913498  0.79267789  1
  N  N731  1  0.70252541  0.04271773  0.75618062  1
  C  C732  1  0.65205909  0.02484050  0.75712742  1
  H  H733  1  0.55316321  0.24416150  0.77963258  1
  N  N734  1  0.80353889  0.14821377  0.75534815  1
  H  H735  1  0.87837555  0.11564353  0.75437004  1
  C  C736  1  0.64202565  0.23467967  0.75099441  1
  N  N737  1  0.54194776  0.86027449  0.14687775  1
  C  C738  1  0.53070630  0.92480467  0.15936018  1
  H  H739  1  0.71745702  0.84850199  0.23281676  1
  H  H740  1  0.63470579  0.60193475  0.11396892  1
  C  C741  1  0.52378175  0.81738898  0.19715603  1
  C  C742  1  0.65750157  0.86514161  0.11739543  1
  H  H743  1  0.55844903  0.66032856  0.06273960  1
  C  C744  1  0.71754867  0.94244330  0.02810162  1
  N  N745  1  0.66900967  0.92533638  0.14095016  1
  N  N746  1  0.62803882  0.67632465  0.18184308  1
  C  C747  1  0.61558116  0.61201634  0.16893810  1
  H  H748  1  0.59042443  0.56263015  0.03364524  1
  H  H749  1  0.62976495  0.83769950  0.15580433  1
  H  H750  1  0.60642274  0.93647699  0.03495687  1
  H  H751  1  0.54388267  0.77001790  0.18537334  1
  H  H752  1  0.80939165  0.95392214  0.03877121  1
  Cu  Cu753  1  0.63478840  0.95171231  0.22764716  1
  H  H754  1  0.89092351  0.66450950  0.12370086  1
  H  H755  1  0.66550233  0.78716842  0.03688134  1
  C  C756  1  0.69452769  0.96551517  0.09474621  1
  H  H757  1  0.54875992  0.95637245  0.11689581  1
  H  H758  1  0.71366396  0.59738181  0.04669450  1
  C  C759  1  0.78851834  0.70479327  0.16628487  1
  C  C760  1  0.50263020  0.94817326  0.22230490  1
  H  H761  1  0.94020350  0.75512883  0.06688600  1
  H  H762  1  0.73343944  0.73168387  0.07735288  1
  C  C763  1  0.79315498  0.58407807  0.18488051  1
  C  C764  1  0.95138900  0.82189673  0.24038777  1
  H  H765  1  0.80741779  0.53696767  0.21074209  1
  H  H766  1  0.93431956  0.88522915  0.04556069  1
  C  C767  1  0.94452400  0.88898272  0.22257908  1
  C  C768  1  0.78580883  0.89445904  0.17656796  1
  C  C769  1  0.93078978  0.57548205  0.16757791  1
  C  C770  1  0.79759187  0.77752206  0.19188039  1
  N  N771  1  0.75640069  0.57212577  0.13032646  1
  C  C772  1  0.95019847  0.69385305  0.20227608  1
  H  H773  1  0.99087781  0.58426082  0.03771245  1
  C  C774  1  0.58018183  0.57617108  0.21476969  1
  C  C775  1  0.80800307  0.64711191  0.20391513  1
  C  C776  1  0.67751566  0.83742033  0.05027627  1
  H  H777  1  0.91040034  0.53979027  0.13223478  1
  C  C778  1  0.74166836  0.62138107  0.08744332  1
  H  H779  1  0.50637080  0.77400762  0.06542286  1
  C  C780  1  0.93793396  0.86106111  0.09932448  1
  C  C781  1  0.53687259  0.76075658  0.02300387  1
  C  C782  1  0.94178861  0.79238810  0.11315221  1
  C  C783  1  0.94578237  0.76897587  0.18709629  1
  C  C784  1  0.75390972  0.69030108  0.10621623  1
  C  C785  1  0.78884133  0.83136667  0.14244931  1
  N  N786  1  0.93691163  0.90707509  0.15264802  1
  H  H787  1  0.77614425  0.82601126  0.08519573  1
  C  C788  1  0.91939771  0.64482768  0.16301761  1
  Cu  Cu789  1  0.92370458  0.99611506  0.12333893  1
  C  C790  1  0.56473881  0.70066171  0.02305886  1
  H  H791  1  0.77310609  0.94577889  0.15170145  1
  N  N792  1  0.96418505  0.54815725  0.21190122  1
  C  C793  1  0.84806380  0.50041865  0.05431929  1
  H  H794  1  0.56613006  0.52680400  0.19562559  1
  C  C795  1  0.99055540  0.66129768  0.24527329  1
  C  C796  1  0.99458040  0.59162645  0.24811130  1
  N  N797  1  0.79033856  0.91003137  0.24800155  1
  C  C798  1  0.60799654  0.70525681  0.24264946  1
  H  H799  1  0.62063710  0.75916841  0.24540240  1
  H  H800  1  0.82870964  0.59489453  0.00719052  1
  C  C801  1  0.71219796  0.87649481  0.00373625  1
  H  H802  1  0.73070097  0.54138214  0.34518270  1
  C  C803  1  0.61638441  0.79734590  0.38015840  1
  H  H804  1  0.69255311  0.86813634  0.40058008  1
  C  C805  1  0.61062381  0.85090282  0.33090700  1
  H  H806  1  0.57579478  0.88441967  0.32849562  1
  C  C807  1  0.66218747  0.75496837  0.37440981  1
  H  H808  1  0.94190791  0.92803587  0.26331353  1
  H  H809  1  0.58521379  0.78663751  0.42093167  1
  C  C810  1  0.77141953  0.98681257  0.44192117  1
  C  C811  1  0.57679597  0.67313776  0.29607208  1
  C  C812  1  0.69696256  0.77058231  0.31252585  1
  H  H813  1  0.56203645  0.69705570  0.34636179  1
  C  C814  1  0.55566081  0.57402230  0.42011096  1
  C  C815  1  0.56765800  0.60447280  0.28553805  1
  C  C816  1  0.66945234  0.68862103  0.41474996  1
  C  C817  1  0.67012216  0.62560521  0.37790223  1
  C  C818  1  0.67433585  0.68656795  0.49368296  1
  C  C819  1  0.81652213  0.79489118  0.26624881  1
  C  C820  1  0.91174432  0.95510093  0.43084039  1
  N  N821  1  0.64773039  0.87252601  0.28598041  1
  C  C822  1  0.81619918  0.71256370  0.41107774  1
  C  C823  1  0.67090620  0.56735699  0.42138481  1
  H  H824  1  0.58965861  0.60687832  0.43277005  1
  C  C825  1  0.88769178  0.97437933  0.36308468  1
  C  C826  1  0.52916233  0.54311214  0.48148475  1
  Cu  Cu827  1  0.77156132  0.99284963  0.28775180  1
  H  H828  1  0.83699801  0.75826253  0.30240024  1
  H  H829  1  0.90239716  0.50197638  0.32444520  1
  C  C830  1  0.81655424  0.53635072  0.33651273  1
  H  H831  1  0.66475113  0.62464638  0.31680311  1
  C  C832  1  0.88834747  0.62751454  0.35496155  1
  H  H833  1  0.79598185  0.75650648  0.43434892  1
  H  H834  1  0.94237384  0.71439435  0.37723241  1
  C  C835  1  0.76389466  0.51231684  0.32499836  1
  H  H836  1  0.96443216  0.80611256  0.29823992  1
  H  H837  1  0.84660133  0.96287343  0.34791455  1
  C  C838  1  0.72737100  0.88765147  0.43508920  1
  N  N839  1  0.73253828  0.95038521  0.41392695  1
  C  C840  1  0.96693615  0.96717294  0.43907876  1
  C  C841  1  0.90033788  0.69291111  0.37117003  1
  H  H842  1  0.92942213  0.63463239  0.48454433  1
  C  C843  1  0.53893207  0.56210297  0.34609378  1
  C  C844  1  0.83531277  0.60263054  0.36082535  1
  H  H845  1  0.80957853  0.87725421  0.34955281  1
  C  C846  1  0.68960811  0.83126923  0.27453437  1
  H  H847  1  0.75507624  0.63481218  0.38984041  1
  C  C848  1  0.80646278  0.85969495  0.29062613  1
  C  C849  1  0.79648460  0.65126884  0.38523720  1
  H  H850  1  0.73293939  0.74067987  0.29313810  1
  N  N851  1  0.86663866  0.73501993  0.40421644  1
  H  H852  1  0.92207539  0.59448906  0.34259216  1
  C  C853  1  0.95387248  0.59290770  0.46752467  1
  H  H854  1  0.66733527  0.51679993  0.39590556  1
  Cu  Cu855  1  0.67573916  0.99538105  0.36267950  1
  H  H856  1  0.59452924  0.97695558  0.34441865  1
  C  C857  1  0.93790172  0.52703080  0.48348972  1
  H  H858  1  0.78425334  0.57391114  0.47867897  1
  H  H859  1  0.99570128  0.83547451  0.47555499  1
  C  C860  1  0.76470725  0.84984018  0.47768518  1
  H  H861  1  0.87889816  0.80127311  0.48620369  1
  N  N862  1  0.67880923  0.57161507  0.49576547  1
  C  C863  1  0.80675416  0.96207860  0.49525524  1
  H  H864  1  0.75731342  0.79682641  0.48960324  1
  H  H865  1  0.51596274  0.91146639  0.47459625  1
  H  H866  1  0.88866471  0.92472567  0.47160911  1
  H  H867  1  0.83784895  0.65082348  0.25259258  1
  H  H868  1  0.96333897  0.65012088  0.66528019  1
  C  C869  1  0.62296678  0.91324510  0.59258794  1
  H  H870  1  0.66066202  0.81892138  0.63131544  1
  C  C871  1  0.67807066  0.62731687  0.53512309  1
  C  C872  1  0.62781896  0.84234029  0.59565068  1
  H  H873  1  0.73794354  0.95701958  0.60453680  1
  C  C874  1  0.65616339  0.95788132  0.64363979  1
  H  H875  1  0.83925964  0.98827069  0.51963847  1
  H  H876  1  0.51683197  0.73912025  0.55392729  1
  N  N877  1  0.53520329  0.59760476  0.66155052  1
  C  C878  1  0.86035310  0.57823001  0.66101693  1
  H  H879  1  0.67662773  0.52505308  0.51829890  1
  C  C880  1  0.71161876  0.97483862  0.65068919  1
  H  H881  1  0.93046204  0.95521256  0.58726637  1
  C  C882  1  0.97582681  0.95201009  0.58203227  1
  C  C883  1  0.84898941  0.89244017  0.64418045  1
  Cu  Cu884  1  0.97761548  0.77237791  0.73665291  1
  C  C885  1  0.70755067  0.69728089  0.72377800  1
  H  H886  1  0.58272285  0.63627358  0.58292955  1
  H  H887  1  0.73108904  0.74284127  0.71317532  1
  H  H888  1  0.77384910  0.62330559  0.70658082  1
  H  H889  1  0.82287408  0.93355555  0.66378342  1
  C  C890  1  0.59181011  0.80433783  0.55345596  1
  C  C891  1  0.89248012  0.86964223  0.68535649  1
  H  H892  1  0.58890451  0.74788080  0.55099247  1
  N  N893  1  0.92405069  0.81865389  0.66579158  1
  H  H894  1  0.68599646  0.62495250  0.59572451  1
  C  C895  1  0.80349461  0.89294006  0.51075928  1
  H  H896  1  0.58408372  0.99882559  0.53691122  1
  H  H897  1  0.94377476  0.75327660  0.59189710  1
  C  C898  1  0.62439538  0.98980605  0.70071445  1
  C  C899  1  0.54157927  0.64171369  0.60824877  1
  H  H900  1  0.53669575  0.54920105  0.54216418  1
  C  C901  1  0.84151219  0.86552204  0.57250848  1
  H  H902  1  0.58102079  0.98285417  0.70282316  1
  C  C903  1  0.80682665  0.57042275  0.53381459  1
  N  N904  1  0.84401904  0.63794521  0.63248925  1
  H  H905  1  0.80779458  0.68181266  0.54631633  1
  C  C906  1  0.91254873  0.78974218  0.59787469  1
  C  C907  1  0.81861849  0.63184137  0.56878397  1
  C  C908  1  0.87778653  0.81744555  0.54642224  1
  C  C909  1  0.73226429  0.63506506  0.72255592  1
  N  N910  1  0.70468708  0.57961878  0.73724552  1
  H  H911  1  0.99846152  0.94013438  0.70115824  1
  H  H912  1  0.54450028  0.72599071  0.72002295  1
  C  C913  1  0.99875258  0.95300676  0.50967000  1
  N  N914  1  0.55403888  0.83072649  0.51179296  1
  C  C915  1  0.56816651  0.77178016  0.74066546  1
  H  H916  1  0.67480613  0.73330354  0.52694903  1
  C  C917  1  0.58203150  0.94415134  0.54914215  1
  H  H918  1  0.88044772  0.59256186  0.71390529  1
  H  H919  1  0.50659170  0.83326785  0.62130103  1
  C  C920  1  0.55039932  0.89849681  0.50961945  1
  C  C921  1  0.50823492  0.69654545  0.59515792  1
  C  C922  1  0.84271181  0.51526782  0.63560491  1
  C  C923  1  0.82109948  0.50721206  0.56117441  1
  H  H924  1  0.62774385  0.52423172  0.65002672  1
  H  H925  1  0.90416204  0.88848286  0.74169867  1
  H  H926  1  0.97593104  0.72103898  0.50870322  1
  C  C927  1  0.65253413  0.70359726  0.73674890  1
  C  C928  1  0.62588194  0.77180266  0.74918391  1
  H  H929  1  0.89830919  0.51423176  0.50345495  1
  C  C930  1  0.68710616  0.62785351  0.92121539  1
  C  C931  1  0.72082642  0.57352516  0.92357125  1
  H  H932  1  0.58381476  0.84785185  0.88838290  1
  H  H933  1  0.69609084  0.66868162  0.87922258  1
  H  H934  1  0.64210856  0.74174534  0.86936466  1
  C  C935  1  0.61292382  0.74616731  0.91565278  1
  C  C936  1  0.58171139  0.80452115  0.92505834  1
  C  C937  1  0.78639609  0.86528692  0.80985373  1
  H  H938  1  0.87598668  0.75325347  0.83682812  1
  H  H939  1  0.63011014  0.92927893  0.81819091  1
  N  N940  1  0.94406558  0.70028783  0.80254921  1
  H  H941  1  0.60762540  0.53552443  0.88101982  1
  N  N942  1  0.70764820  0.51700640  0.95825944  1
  H  H943  1  0.76040728  0.56514762  0.89193337  1
  C  C944  1  0.73826431  0.78204079  0.91741820  1
  C  C945  1  0.73591248  0.85246596  0.92883176  1
  N  N946  1  0.56469804  0.88210480  0.78983753  1
  C  C947  1  0.65319850  0.83033772  0.77167115  1
  C  C948  1  0.90654228  0.97816828  0.96546547  1
  C  C949  1  0.60255910  0.69271236  0.96292608  1
  C  C950  1  0.63651455  0.62934732  0.95976053  1
  H  H951  1  0.83266605  0.92070263  0.94917165  1
  H  H952  1  0.84182778  0.65874938  0.92506037  1
  H  H953  1  0.81256185  0.89411893  0.76501680  1
  H  H954  1  0.97367805  0.53661441  0.84545118  1
  H  H955  1  0.74093503  0.97716662  0.99333658  1
  C  C956  1  0.87773463  0.92145303  0.94022854  1
  C  C957  1  0.85380773  0.55045117  0.99941258  1
  C  C958  1  0.96890877  0.63784319  0.80235166  1
  N  N959  1  0.54160995  0.96101712  0.96733470  1
  H  H960  1  0.72170704  0.74569675  0.95736572  1
  C  C961  1  0.75914058  0.89194590  0.87081278  1
  H  H962  1  0.75626266  0.94564970  0.87950197  1
  N  N963  1  0.95938038  0.86474457  0.91011134  1
  N  N964  1  0.79169716  0.79991847  0.80468701  1
  C  C965  1  0.90622539  0.59344486  0.88900939  1
  C  C966  1  0.89099595  0.53849181  0.94298183  1
  C  C967  1  0.87703723  0.65302089  0.88840430  1
  H  H968  1  0.95493812  0.67876230  0.94558141  1
  H  H969  1  0.76397670  0.71065126  0.82872195  1
  C  C970  1  0.61824455  0.88104680  0.79368151  1
  C  C971  1  0.95326912  0.58304305  0.84504397  1
  C  C972  1  0.96440803  0.97349837  0.96637702  1
  H  H973  1  0.88926146  0.81632722  0.89028742  1
  C  C974  1  0.76332565  0.76183303  0.85105149  1
  C  C975  1  0.90652854  0.86655319  0.91427824  1
  H  H976  1  0.51577161  0.52104162  0.93242647  1
  C  C977  1  0.98747055  0.91425587  0.93892699  1
  C  C978  1  0.89676078  0.70598961  0.84301422  1
  C  C979  1  0.59023957  0.97770048  0.99822286  1
  N  N980  1  0.54597306  0.81190119  0.97829702  1
  C  C981  1  0.62364235  0.64220996  0.75132146  1
  C  C982  1  0.65333234  0.58308748  0.75057692  1
  H  H983  1  0.50233685  0.65226969  0.87763078  1
  C  C984  1  0.99331212  0.67776452  0.97546837  1
  H  H985  1  0.69625501  0.83253866  0.77639334  1
  C  C986  1  0.54029789  0.82653913  0.76653352  1
  H  H987  1  0.58153550  0.63978643  0.76205143  1
  H  H988  1  0.63564022  0.53110824  0.75912045  1
  Cu  Cu989  1  0.98872922  0.78829098  0.86917485  1
  C  C990  1  0.66222123  0.51718390  0.99489192  1
  C  C991  1  0.62378967  0.56814813  0.99532963  1
